44
Coordinates from ORCA-job reopt_t-s1-wb2plyp_2s-p
  N   -6.86354556401598     -3.03868354691609     -0.05878439357892
  C   -5.76581421086540     -2.20795541386465     -0.01771492725972
  C   -4.46953360621472     -2.72716640330058     -0.05673708121842
  C   -3.37277215617400     -1.89282197526594     -0.05330913553612
  C   -3.51110922258344     -0.50359560868548     -0.01225131196626
  C   -4.80817469713952      0.00684834982338      0.02707524361703
  C   -5.91339369008842     -0.82119573653825      0.02489753322209
  H   -6.91159051475804     -0.38885413997892      0.05381395542859
  H   -4.97819538710090      1.07912995435408      0.06582257488470
  C   -2.31261576640178      0.34867203745693     -0.00920313578623
  N   -1.13292101874196     -0.26172673290512     -0.00594789023669
  C   -0.00040685772159      0.40281493326938     -0.00200517142014
  N   1.13182115841501     -0.26225682982572      0.00163764883264
  C   2.31171604062801      0.34777005424399      0.00487227937367
  C   3.51023321208719     -0.50447822395499      0.00849465671120
  C   4.80721569274966      0.00648271508665     -0.02818176641917
  C   5.91276740550933     -0.82104874740423     -0.02365194856282
  C   5.76568100494277     -2.20786590385913      0.01904040298808
  N   6.86383710286150     -3.03782808822619      0.06394833647766
  H   7.73808031189528     -2.65842363933448     -0.25814795078109
  H   6.71712172471235     -4.00141034961047     -0.18516439612733
  C   4.46950288419765     -2.72765877134780      0.05450362050552
  C   3.37235408050772     -1.89378088320690      0.04835720222070
  H   2.36996268279843     -2.30902333787112      0.07377189143884
  H   4.32805176220110     -3.80622810356116      0.09043136493363
  H   6.91089938329904     -0.38833328094892     -0.04978034799800
  H   4.97692734910081      1.07886615797504     -0.06544454549893
  C   2.37895649125463      1.75000773800639      0.00727598035666
  C   1.22007655706057      2.50364528424972      0.00385618613404
  C   1.20037333934117      3.89924152243912      0.00517742938176
  C   0.00048034727580      4.59723246177918      0.00030357129648
  C   -1.19969519542359      3.89971783294531     -0.00488241860308
  C   -1.22000813667572      2.50411135590148     -0.00516091216695
  C   -2.37925644934464      1.75098672090767     -0.00908095858000
  H   -3.32402376964481      2.28021362286262     -0.01476832802998
  N   -0.00009388507104      1.81499657217413     -0.00101958558909
  H   -2.15249509858629      4.41980188301505     -0.00832341576735
  H   0.00070925074131      5.68326156266660      0.00093752141328
  H   2.15339245643154      4.41891638452621      0.00971736521408
  H   3.32398713210994      2.27870205825047      0.01520908008312
  H   -2.37026380027442     -2.30763323155658     -0.08096037002787
  H   -4.32771742891535     -3.80567196791129     -0.09279216652778
  H   -7.73724291686894     -2.65942353288946      0.26501673525666
  H   -6.71554724145071     -4.00179827108022      0.19132748797013
