48
reopt_t-s1-wb2plyp_2s-p.xyz
  N     -7.116358   -2.553537   -0.097574
  C     -5.953112   -1.823398   -0.042534
  C     -4.744504   -2.432758    0.247767
  C     -3.533360   -1.730608    0.269976
  N     -2.398840   -2.403909    0.577496
  H     -1.516605   -1.934404    0.434837
  H     -2.438443   -3.401989    0.667987
  C     -3.536740   -0.334436   -0.002658
  C     -2.322835    0.486484    0.015839
  N     -1.129353   -0.111356    0.007530
  C      0.003470    0.554725    0.003296
  N      1.134074   -0.115951    0.000139
  C      2.328295    0.479144   -0.011263
  C      3.540907   -0.343891    0.006219
  C      4.774868    0.226918    0.340720
  C      5.958029   -0.469687    0.363300
  C      5.955832   -1.832054    0.035222
  N      7.119465   -2.562046    0.079813
  H      7.984031   -2.049477    0.044225
  H      7.133715   -3.438749   -0.413016
  C      4.751131   -2.432927   -0.290569
  C      3.541322   -1.729926   -0.309064
  N      2.408950   -2.390135   -0.661513
  H      1.528062   -1.933664   -0.473551
  H      2.445172   -3.390661   -0.731402
  H      4.734460   -3.492569   -0.540429
  H      6.884480    0.023513    0.646271
  H      4.809076    1.274633    0.623153
  C      2.385431    1.887279   -0.044551
  C      1.229525    2.641858   -0.031529
  C      1.209887    4.038416   -0.044505
  C      0.010736    4.736895   -0.006836
  C     -1.190890    4.042194    0.034468
  C     -1.215068    2.645926    0.029991
  C     -2.373915    1.895425    0.043637
  H     -3.311896    2.432463    0.094998
  N      0.006212    1.957766    0.003274
  H     -2.141725    4.565060    0.060085
  H      0.012507    5.822937   -0.009364
  H      2.162528    4.557747   -0.074898
  H      3.326752    2.418041   -0.103503
  C     -4.777186    0.245375   -0.298061
  C     -5.960520   -0.450217   -0.324366
  H     -6.890942    0.052064   -0.576720
  H     -4.818070    1.301725   -0.543969
  H     -4.723545   -3.500298    0.460869
  H     -7.123847   -3.445726    0.366748
  H     -7.981050   -2.043617   -0.035214
