44
reopt_t-s0-wb2plyp_2s-p.xyz
  N     -2.399350   -2.565405   -0.771110
  C     -3.526996   -1.925531   -0.374348
  C     -3.536221   -0.561316    0.022774
  C     -4.754271    0.008849    0.424249
  C     -5.943259   -0.691318    0.423926
  C     -5.932795   -2.021878    0.000423
  C     -4.754169   -2.620386   -0.386004
  H     -4.751129   -3.664595   -0.707509
  H     -6.858799   -2.600641   -0.018155
  H     -6.866373   -0.215155    0.755519
  H     -4.758381    1.039857    0.778156
  C     -2.323590    0.270478    0.008933
  N     -1.135124   -0.351634    0.021613
  C      0.004589    0.320078    0.015286
  N      1.139859   -0.355609    0.008834
  C      2.329512    0.267901    0.015490
  C      3.542485   -0.565910   -0.015095
  C      3.552344   -1.906565    0.451291
  N      2.445565   -2.510420    0.963151
  H      2.487461   -3.507706    1.117250
  H      1.552687   -2.083224    0.722222
  C      4.772495   -2.609051    0.421370
  C      5.929466   -2.035896   -0.062159
  C      5.920504   -0.726861   -0.544425
  C      4.734857   -0.019456   -0.510442
  H      4.717051    0.994179   -0.912127
  H      6.825800   -0.273059   -0.948754
  H      6.852372   -2.619756   -0.073391
  H      4.784891   -3.636765    0.792107
  C      2.398034    1.646459    0.047995
  C      1.218645    2.407968    0.031131
  C      1.207938    3.805775    0.034871
  C      0.007077    4.491609    0.011534
  C     -1.192162    3.808956   -0.011303
  C     -1.206569    2.407862   -0.005307
  C     -2.386142    1.652547   -0.023343
  H     -3.324682    2.195355   -0.087314
  N      0.005898    1.728635    0.013816
  H     -2.149183    4.327821   -0.028871
  H      0.008446    5.583458    0.010670
  H      2.165370    4.323722    0.051174
  H      3.341267    2.182285    0.108047
  H     -2.442244   -3.559722   -0.935528
  H     -1.514171   -2.107824   -0.559886
