40
Coordinates from ORCA-job reopt_t-t0-wb2plyp_2s-p
  C   -5.74698173801491     -2.47885775155591     -0.00771680752416
  C   -5.91191291318592     -1.10264742887477     -0.00330918845828
  C   -4.80730231585286     -0.26810967789342      0.00034190682337
  C   -3.51448799512316     -0.79180756420393     -0.00022883550989
  C   -3.36226080550913     -2.17860982380540     -0.00424405655245
  C   -4.46647523302438     -3.01154945890706     -0.00791931222225
  H   -4.32587615481861     -4.09001210328228     -0.01106587680972
  H   -2.35652721192398     -2.58493608144144     -0.00458341887835
  C   -2.30934032203889      0.06375970568089      0.00231866046676
  N   -1.13200187559282     -0.55416026260410      0.00271546862202
  C   -0.00012438384293      0.10999031041801      0.00313385749969
  N   1.13173263883564     -0.55436262921351      0.00286979228385
  C   2.30912596585702      0.06343039140621      0.00192726420849
  C   3.51439725695984     -0.79213595280245      0.00064183182061
  C   3.36257015969886     -2.17888066195524      0.01867852160982
  C   4.46702236050769     -3.01155344423683      0.01824492456287
  C   5.74741233849234     -2.47874983769743     -0.00075664932038
  C   5.91188835981268     -1.10265723771696     -0.01964360544900
  C   4.80704902202758     -0.26838630397308     -0.01888110442239
  H   4.96942056123111      0.80527214864023     -0.03558513146505
  H   6.91047290921588     -0.67199250834047     -0.03587604766368
  H   6.61464000858588     -3.13477008953525     -0.00135281184161
  H   4.32676375778910     -4.08997483164548      0.03261575684057
  H   2.35700185188202     -2.58544103139613      0.03296791223793
  C   2.37801094848871      1.45774306950554      0.00261844648990
  C   1.21643910185697      2.21124816167902      0.00325781733029
  C   1.19457369357448      3.60342767876872      0.00410435397098
  C   -0.00006854588195      4.31563288611702      0.00458093052200
  C   -1.19481784728127      3.60357913179485      0.00420756427605
  C   -1.21659480010041      2.21141373566986      0.00343094891174
  C   -2.37817975551550      1.45801576742931      0.00297667401470
  H   -3.32296601513731      1.98710544464424      0.00267762962836
  N   -0.00010251592229      1.51291034444568      0.00298424860536
  H   -2.15190399741443      4.11684609880317      0.00444363741231
  H   0.00006980032697      5.40006840775311      0.00511719287380
  H   2.15174558224579      4.11658113847221      0.00409169081656
  H   3.32282570636447      1.98677684682213      0.00412469104771
  H   -4.96997547996993      0.80566340108457      0.00358728516309
  H   -6.91065611465103     -0.67204628664596     -0.00278679915251
  H   -6.61423826679050     -3.13482383961935     -0.01056903774209
