44
Coordinates from ORCA-job reopt_t-s0-wb2plyp_2s-p
  N   -2.42742977639442     -2.54135866035817     -0.92589927677437
  C   -3.54201251450108     -1.92862372376710     -0.44458937349308
  C   -3.53937321572126     -0.58219243492285      0.00546388530708
  C   -4.74089963111941     -0.02915896624638      0.47179416550493
  C   -5.92743498301811     -0.73487431606165      0.49230220886731
  C   -5.92891212681056     -2.04974160564538      0.02519884549667
  C   -4.76396504431406     -2.62947571973731     -0.42949995298755
  H   -4.77035762368198     -3.66162026629946     -0.78781253788905
  H   -6.85250875934997     -2.63262099610651      0.02574377317185
  H   -6.83934703805118     -0.27509285024160      0.87433051554192
  H   -4.73010022278253      0.98917435695917      0.86150094020091
  C   -2.32589245282824      0.25020128857721     -0.01401791188276
  N   -1.13773494211878     -0.37378570291506      0.00050729948017
  C   0.00002589836955      0.29967884424841     -0.00155791572968
  N   1.13774040259565     -0.37375740170218     -0.00433637809290
  C   2.32591119833837      0.25025106147072      0.01167548174082
  C   3.53946116148377     -0.58214793226017     -0.00689045644450
  C   3.54170168901715     -1.92833300604850      0.44379555574802
  N   2.42662893632658     -2.54073480528890      0.92460260677053
  H   2.46784192600643     -3.53884355094973      1.07250324450554
  H   1.53723483201720     -2.10850276919944      0.67972475096273
  C   4.76365630152144     -2.62912106929427      0.43037434595035
  C   5.92914395034309     -2.04940991098235     -0.02303221426196
  C   5.92808099167089     -0.73483352051559     -0.49090874490779
  C   4.74139823750185     -0.02924414120185     -0.47225271235512
  H   4.73077175059364      0.98879930652543     -0.86267930686787
  H   6.84042886614770     -0.27524901964115     -0.87215673357571
  H   6.85283202946096     -2.63212977652242     -0.02197203367402
  H   4.76972264535445     -3.66108098053947      0.78922447420184
  C   2.39170981340417      1.63014347339402      0.04690901213732
  C   1.21213434924639      2.38848799921801      0.02415801989350
  C   1.19970316565443      3.78780622242474      0.03006653160860
  C   -0.00000462913170      4.47248319222356      0.00093873116287
  C   -1.19964856389091      3.78786890386756     -0.02923461183956
  C   -1.21213782336934      2.38846594768465     -0.02495646962653
  C   -2.39167737386047      1.63018888755922     -0.04824991161268
  H   -3.33359967985284      2.16728868624876     -0.11549850940990
  N   0.00000848744112      1.70869210084818     -0.00079577149053
  H   -2.15704838754784      4.30575760802142     -0.05068489297371
  H   -0.00002229333417      5.56429733049243      0.00191636285535
  H   2.15716135737362      4.30560366584384      0.05215313727719
  H   3.33364533288740      2.16709051807016      0.11512727035967
  H   -2.46886057173409     -3.53933860995802     -1.07443796139921
  H   -1.53779738645059     -2.10871589433480     -0.68265500285004
