43
Coordinates from ORCA-job reopt_t-t0-wb2plyp_2s-p
  N   2.61714420070186      2.61089469432464     -0.66309720259022
  C   3.69712827060146      1.88666819826805     -0.26243835659307
  C   3.60738979340767      0.50625150742948      0.06102318733215
  C   4.79169430252512     -0.14581495678391      0.44070782518259
  C   6.01511967947953      0.48322532148561      0.49241769130038
  C   6.08961648124194      1.83201598784923      0.16011485639754
  C   4.95046036529753      2.51212637697482     -0.20401311576971
  H   5.00711502400719      3.56823131392293     -0.46118122639159
  H   7.04174995433653      2.35662286011009      0.19292211828256
  H   6.90134614437389     -0.06519605334247      0.79938891238243
  H   4.74567832062573     -1.19041394724849      0.73323216666251
  C   2.35362481454608     -0.24295680143177      0.00022257115293
  N   1.15998975449325      0.42175456145443     -0.00206867221589
  C   0.03064006355359     -0.19795656461127     -0.01000607069377
  N   -1.12186568348406      0.47793766797057      0.00323143399435
  C   -2.27244768341734     -0.15593513409482      0.01392112888150
  C   -3.52897829290666      0.59718872958867      0.04221080631436
  C   -3.58578373130236      2.01339496560390      0.06098902671393
  N   -2.48936660075066      2.80051751733398      0.04664257617724
  H   -2.59740604017189      3.79632930011549      0.09223732185776
  H   -1.57777986156928      2.36840310692469      0.04432308562107
  C   -4.85699189703385      2.62078902808017      0.09232424892538
  C   -6.01050411391450      1.87901694896423      0.10333620609270
  C   -5.96089930294357      0.48478877376290      0.08394933356906
  C   -4.73174152006801     -0.12595785696872      0.05421650441936
  H   -4.65938075108954     -1.20754959825063      0.04038198224392
  H   -6.87234996813710     -0.10595160519279      0.09239043077072
  H   -6.97057392571865      2.39086892705411      0.12730084359079
  H   -4.90645382427430      3.70744451741952      0.10687554496734
  N   -2.37771407438014     -1.50158156560156     -0.00055850359360
  C   -1.28761842001290     -2.20309846853502     -0.02836497046296
  C   -1.34252817873644     -3.62017025255786     -0.06893556921271
  C   -0.18321615406726     -4.38328829471060     -0.12567837543248
  C   1.04733077532357     -3.74385273054379     -0.13499130573372
  C   1.14678922156360     -2.35418131463827     -0.07819529924382
  C   2.33413667491574     -1.64364399855926     -0.06362333209345
  H   3.25234045124871     -2.21569206246973     -0.12649621219758
  N   -0.04988400749475     -1.59861096638517     -0.02476850393910
  H   1.97158017710369     -4.31306981987517     -0.17896317046435
  H   -0.23947535293058     -5.46630945293037     -0.16318658563834
  H   -2.33495815843883     -4.05563395108499     -0.06229044527860
  H   2.71660921802234      3.60895095548385     -0.70811330903509
  H   1.70615033168199      2.21904845824887     -0.47270286324243
