43
Coordinates from ORCA-job reopt_t-t0-wb2plyp_2s-p
  N   7.05848695730021      2.80367782170575      0.05810129916266
  C   5.91959340924121      2.03289197667306      0.01311178942330
  C   5.99652760522289      0.63989792447521     -0.01442807212861
  C   4.85205487465587     -0.12870557898612     -0.01730166965811
  C   3.57964638177211      0.44897022950519      0.00592526631846
  C   3.51404922119199      1.84582573076149      0.03089003324432
  C   4.65281831995798      2.61972704041257      0.03541152690155
  H   4.56765285053005      3.70458540291688      0.05964327394893
  H   2.53453570744263      2.31199684375455      0.04592287802435
  C   2.34727013846582     -0.33145270857314      0.00232902811327
  N   1.17740649319281      0.35221312163669     -0.00639235188705
  C   0.04129998109071     -0.25763095942236     -0.01077492969187
  N   -1.10412806229431      0.42180741630299     -0.01994498510193
  C   -2.24509428639096     -0.22016832250674     -0.02499073015471
  C   -3.48614104816781      0.56366209340929     -0.02687024775543
  C   -4.73121842572774     -0.06144916072318     -0.02800131645291
  C   -5.89761720628894      0.67371503872662     -0.02336894811587
  C   -5.85782242653574      2.07080622616395     -0.01866354148806
  N   -7.01570693927951      2.80687126391323     -0.04980518950022
  H   -7.86991977790922      2.34680509258382      0.21453344069958
  H   -6.95954308085386      3.77722453647428      0.20730288426300
  C   -4.60831070315287      2.69992505330116     -0.01756932499615
  C   -3.44756103891808      1.95736600444682     -0.02177748671220
  H   -2.47956169959217      2.44933858591556     -0.01837714311948
  H   -4.55795937491585      3.78697569260719     -0.01560963148078
  H   -6.86001212898773      0.16570645291305     -0.02686037057943
  H   -4.77101938915446     -1.14610267456772     -0.03025111762440
  N   -2.37063781469073     -1.55948790577974     -0.01880763290556
  C   -1.28259679783705     -2.27183654417119     -0.00792383978268
  C   -1.34275245613115     -3.68389272885947      0.00401075700694
  C   -0.18607985498602     -4.46003086418252      0.02068716065057
  C   1.04367101017229     -3.82125176086596      0.02209161076521
  C   1.14616643133552     -2.43236058933767      0.00809783936574
  C   2.33746456489281     -1.72822657753226      0.01045127892418
  H   3.25714126946240     -2.30226311735114      0.02076268459805
  N   -0.04271158274115     -1.66390123350527     -0.00549334335968
  H   1.96851152877278     -4.39132000480971      0.03514122581985
  H   -0.24665025342388     -5.54306537776920      0.03213913329774
  H   -2.33841575593996     -4.11260951267986      0.00189491650169
  H   4.96954307319466     -1.20853209193056     -0.04210967311915
  H   6.97135516723263      0.15634935521205     -0.02969420488726
  H   7.91044614093510      2.37709472497904     -0.26501554210952
  H   6.96207936335457      3.77085640716620     -0.20190633369994
