39
Coordinates from ORCA-job reopt_t-s1-wb2plyp_2s-p
  C   -5.88600011605080     -2.31077138695182     -0.00320526380712
  C   -4.63243391010781     -2.90517383112793      0.02272058194656
  C   -3.48934696026105     -2.12721753331490      0.02418864221146
  C   -3.57431936521465     -0.73409840871643      0.00069975056129
  C   -4.84006834454158     -0.14822615990794     -0.02543437577856
  C   -5.98396544658615     -0.92854481856248     -0.02741987510110
  H   -6.96020560151859     -0.44978195318415     -0.04887617575480
  H   -4.95105443804964      0.93166117478307     -0.04714712457740
  C   -2.33357069844419      0.06473518805582      0.00270705473382
  N   -1.18783509560986     -0.59642833224399      0.00322368933251
  C   -0.02711036916556      0.02609518510884      0.00296227440244
  N   1.08882988238067     -0.65376401019345      0.00208085924913
  C   2.25747845936063     -0.01448947916365      0.00041910526118
  C   3.48744811081931     -0.81732809033944     -0.00240401523236
  C   3.41778183547568     -2.20994686338467     -0.00292175977475
  C   4.57572710638467     -2.96694956299422     -0.00570471465480
  C   5.81656057087264     -2.34617108922556     -0.00821606512516
  C   5.89316607101482     -0.96093912673647     -0.00784516381680
  C   4.73740141193230     -0.20004141223024     -0.00482568251536
  H   4.78680546238201      0.88398011655533     -0.00431989985024
  H   6.86316177211293     -0.46886237147073     -0.00989030449600
  H   6.72521212022042     -2.94401004737983     -0.01049911302491
  H   4.51004246661225     -4.05249400377439     -0.00597875876722
  H   2.44167999241136     -2.68442699270372     -0.00116415255789
  N   2.37106146468858      1.31730450075566      0.00123708585662
  C   1.28904704766770      2.04819757924283      0.00287931753398
  C   1.34109768069319      3.44503460151593      0.00584005824211
  C   0.17609460422107      4.19966757032970      0.00919137827762
  C   -1.06069385685825      3.57176736431550      0.00920078621348
  C   -1.15549598719936      2.17638918194035      0.00545008375790
  C   -2.34358585162562      1.47516711021028      0.00512995322151
  H   -3.26600760179980      2.04144447423207      0.00931860153674
  N   0.02746965067512      1.43505042916057      0.00201956851135
  H   -1.98241911191427      4.14490070523110      0.01164753706225
  H   0.23307993479485      5.28433814554434      0.01200431406318
  H   2.32784020915261      3.89408654884196      0.00587004272713
  H   -2.50560742622245     -2.58435121609910      0.04344648732469
  H   -4.54437717893229     -3.98889172398268      0.04174007136549
  H   -6.78394127580204     -2.92412013301420     -0.00450504832300
