48
Coordinates from ORCA-job reopt_t-s0-wb2plyp_2s-p
  N   -7.10809160316488     -2.58190930738110     -0.07955958661226
  C   -5.94587190755488     -1.85027148248338     -0.02549372105296
  C   -4.73985463720780     -2.44850786062755      0.31067065077190
  C   -3.52723173519300     -1.74108111732229      0.32880908203880
  N   -2.39244971035154     -2.38935662788131      0.69263114300381
  H   -1.51611911498562     -1.90570397114911      0.49455417852507
  H   -2.41799328747232     -3.39657223135912      0.75231043028996
  C   -3.53555327791701     -0.35338718318247      0.00633976682077
  C   -2.33108479930421      0.47795828457105      0.02569485948484
  N   -1.13727110346806     -0.13965690554720      0.00402432865398
  C   -0.00000642512322      0.53460843011600      0.00119996628250
  N   1.13717520113166     -0.13976852225553     -0.00186249759949
  C   2.33095417291024      0.47793488692983     -0.02289589951621
  C   3.53542613336718     -0.35334000629349     -0.00401761871069
  C   4.77014806335868      0.21710518432802      0.34393807925672
  C   5.95134434491013     -0.48597409088785      0.36982838058577
  C   5.94560396457491     -1.85016690845574      0.02614129382148
  N   7.10770737851737     -2.58201882867956      0.07976716144272
  H   7.97740037550058     -2.06712259631336      0.05275793247404
  H   7.12414607061687     -3.46319309021108     -0.41584929616097
  C   4.73997646381411     -2.44747875850102     -0.31305917800018
  C   3.52736499129948     -1.74009215959732     -0.33012058736547
  N   2.39272217671614     -2.38715662237948     -0.69654385682824
  H   1.51638574379235     -1.90432322426348     -0.49656806909909
  H   2.41823587744678     -3.39419011076274     -0.75926358644875
  H   4.72270807211648     -3.50919152921399     -0.57271176009286
  H   6.88185881371404     -0.00078153988756      0.66926696622033
  H   4.79700942466369      1.26589886806103      0.63940464807313
  C   2.39085861705423      1.86263814028676     -0.06111031025849
  C   1.21424254289704      2.61931912210250     -0.03155511066037
  C   1.20035389333800      4.02014181581646     -0.03787745368935
  C   0.00003711539218      4.70319036483668     -0.00148806298848
  C   -1.20016856232508      4.02007029297461      0.03627224740604
  C   -1.21410043551761      2.61925948047630      0.03258544882498
  C   -2.39079694323311      1.86275104548164      0.06348495789542
  H   -3.32858918042613      2.40578281268975      0.13595055380231
  N   0.00006707898031      1.94103968363246      0.00085430236901
  H   -2.15697748159255      4.53876238442155      0.06236171522625
  H   -0.00003627049816      5.79518450516598     -0.00262296189036
  H   2.15714273011515      4.53895864232591     -0.06563675651572
  H   3.32883737606569      2.40528221905867     -0.13339921191330
  C   -4.77065681426570      0.21780601549861     -0.33914235858664
  C   -5.95189383600368     -0.48516637977993     -0.36560207557655
  H   -6.88266860103458      0.00091219301211     -0.66278563722786
  H   -4.79788330775367      1.26731743752805     -0.63197166162707
  H   -4.72228535630943     -3.51099426750924      0.56720551250657
  H   -7.12407480275235     -3.46438185254532      0.41373149108774
  H   -7.97771010184258     -2.06701870336753     -0.05038065514083
