48
Coordinates from ORCA-job ./reopt_t-s0-wb2plyp_2s-p
  N   -7.10571607632475     -2.55072022537101     -0.09385692419552
  C   -5.94444797701605     -1.81794467908673     -0.03561241657834
  C   -4.73888477484887     -2.41509361686202      0.30368653126613
  C   -3.52673799671405     -1.70673223054451      0.32428439933629
  N   -2.39228992808793     -2.35423093272205      0.68899321913544
  H   -1.51555076012744     -1.86882740172910      0.49727979108054
  H   -2.41763095825901     -3.36088202046090      0.75605655761497
  C   -3.53541187898434     -0.31903961789179      0.00158824368219
  C   -2.33135622299249      0.51257317183873      0.02253664474382
  N   -1.13744128589949     -0.10499501731598      0.00507498775407
  C   -0.00020543453785      0.56925215589149      0.00355219571888
  N   1.13683507903085     -0.10530860818992      0.00211487817618
  C   2.33088931252585      0.51197296147776     -0.01721339079971
  C   3.53493614055331     -0.31984836795045      0.00145861307285
  C   4.77098485649946      0.25124593583339      0.34388536918561
  C   5.95208056839630     -0.45190613328895      0.36839265792979
  C   5.94501572293057     -1.81735111212485      0.02941237606437
  N   7.10713959840243     -2.54917283553148      0.08221909388854
  H   7.97684538325313     -2.03456647389776      0.05087476289263
  H   7.12199383710713     -3.43232523471764     -0.40988800939132
  C   4.73833797105532     -2.41549391548551     -0.30411550615984
  C   3.52570693646951     -1.70787028890094     -0.32015625078010
  N   2.39028337141890     -2.35639541104294     -0.68018523565251
  H   1.51398855146738     -1.87177516245511     -0.48448331016988
  H   2.41610328757762     -3.36314159066110     -0.74605688926397
  H   4.72001249392171     -3.47817750302634     -0.55977856811547
  H   6.88363298046264      0.03415487899735      0.66312199579752
  H   4.79925921996261      1.30103585607038      0.63560004090709
  C   2.39088550257093      1.89684822395423     -0.05373839020347
  C   1.21431509438231      2.65367439956042     -0.02621569445863
  C   1.20048628896938      4.05454366510283     -0.03147194459891
  C   0.00008388656019      4.73767624479063      0.00155644008647
  C   -1.20032300549376      4.05469450160143      0.03462067244265
  C   -1.21429152638154      2.65386544031236      0.03062595468738
  C   -2.39105246687569      1.89747307019713      0.05800284799501
  H   -3.32891572748581      2.44076472788867      0.12655508404688
  N   -0.00004510528366      1.97557248635115      0.00271837184034
  H   -2.15726309164617      4.57341062598107      0.05776548185718
  H   0.00000923735815      5.82969020642851      0.00153924006573
  H   2.15737457241537      4.57334849842708     -0.05579215684640
  H   3.32885722115196      2.43976638868337     -0.12372691428416
  C   -4.77041116739684      0.25128075714245     -0.34589073548111
  C   -5.95096603181937     -0.45259579458214     -0.37504953163451
  H   -6.88148373289928      0.03274240804756     -0.67421824969571
  H   -4.79800058435495      1.30076303867218     -0.63871040892397
  H   -4.72096308215822     -3.47765388258068      0.55988898803127
  H   -7.12241038288366     -3.43357711281942      0.39871540526433
  H   -7.97594891597179     -2.03675847401088     -0.06716731733067
