48
Coordinates from ORCA-job reopt_t-t0-wb2plyp_2s-p
  N   -7.11784159209716     -2.56824673794136     -0.05127172670534
  C   -5.95361524776713     -1.84082645795061     -0.01622489637646
  C   -4.75439308394839     -2.43444485838703      0.33902443221000
  C   -3.54203197243527     -1.73399561943466      0.34857916669460
  N   -2.41617788503040     -2.38579538577379      0.73149225364284
  H   -1.53346785053439     -1.93391527452007      0.53432373479148
  H   -2.45467972132396     -3.38436451767115      0.82479726632372
  C   -3.53748524122207     -0.35700998042557     -0.00339692865333
  C   -2.32238943602083      0.46620596762406      0.00799230621735
  N   -1.13043523083878     -0.14387992646401     -0.00605127798381
  C   -0.00026041698752      0.53101012834541     -0.00803108487072
  N   1.12956064326157     -0.14445399115163     -0.01229378797993
  C   2.32167524975323      0.46565475781592     -0.01825143518121
  C   3.53676004238301     -0.35743931506362     -0.00168836676189
  C   4.76163871589457      0.20465209668121      0.37764386866391
  C   5.94497365068884     -0.48999517768776      0.40292918334505
  C   5.95198945268819     -1.84159108421588      0.02907218649676
  N   7.11573389339404     -2.56901177256628      0.07448155277873
  H   7.98056299150007     -2.05595270256833      0.07930710315017
  H   7.14323526345308     -3.43440879650717     -0.43709541852260
  C   4.75648507601405     -2.43333842492651     -0.34199441341776
  C   3.54450781165099     -1.73246780245839     -0.36056348436436
  N   2.42178339639874     -2.38158899809455     -0.75765884084974
  H   1.53763947580933     -1.93130821335761     -0.56330522212049
  H   2.46052944602878     -3.37988448656024     -0.85423763428857
  H   4.74749269355309     -3.48435499470064     -0.62595573695271
  H   6.86402571500552     -0.00654394025577      0.72401487144382
  H   4.78584926450723      1.24280152200053      0.69496949631532
  C   2.37969350609311      1.86108207507141     -0.04503374830300
  C   1.21934613612360      2.61901154659297     -0.02934278022554
  C   1.19402039731430      4.00965358123884     -0.03402911240020
  C   0.00051597688319      4.73110435241063      0.00075799513161
  C   -1.19324482934208      4.00989569908324      0.03350130689224
  C   -1.21918653505899      2.61922178502323      0.02386549426700
  C   -2.37977088726061      1.86167350096381      0.03966671249272
  H   -3.32244156902966      2.39079342004772      0.09734434766744
  N   -0.00005623045889      1.91401738204457     -0.00476685129659
  H   -2.15221618132911      4.51974977166587      0.06014201632632
  H   0.00074230647887      5.81478979679679      0.00268571286599
  H   2.15325224857897      4.51909459026199     -0.05799794254781
  H   3.32281580770969      2.38983573346659     -0.09804428572278
  C   -4.76620284277223      0.20691215370211     -0.36745921266679
  C   -5.94998026580128     -0.48734031354917     -0.38382045526159
  H   -6.87209908887383     -0.00162801785275     -0.69245503908939
  H   -4.79364056319956      1.24680190421062     -0.67886724787497
  H   -4.74272653432253     -3.48673720685337      0.61805189983043
  H   -7.13952525434198     -3.43524692288177      0.45781362654683
  H   -7.98262337417335     -2.05507491375161     -0.04435242037481
