44
Coordinates from ORCA-job reopt_t-t0-wb2plyp_2s-p
  N   -2.45319534165782     -2.55251818992899     -0.93735616078433
  C   -3.56086278735820     -1.92628254166752     -0.45341139488901
  C   -3.54302086753695     -0.58418972074402     -0.00232425931594
  C   -4.74020289966382     -0.02771857268329      0.46198341105829
  C   -5.93047274681389     -0.72095084547156      0.48026233385903
  C   -5.94245245271913     -2.03148021154857      0.01565558254315
  C   -4.78305905851900     -2.61676245718104     -0.43685964990241
  H   -4.79699154848611     -3.64434268226928     -0.79485927939162
  H   -6.86655458572565     -2.60550949075541      0.01483322605389
  H   -6.83500178752561     -0.25337887274155      0.85861603428850
  H   -4.73009474456889      0.98664768603470      0.85028014758085
  C   -2.31902444241713      0.23661580316684     -0.01585441420721
  N   -1.13213234399863     -0.37711506357765     -0.00566398897139
  C   -0.00076116421465      0.29411297010758     -0.00067841375984
  N   1.12906750521581     -0.37831995578203      0.00144673428745
  C   2.31711750816050      0.23483570824968      0.01208210425564
  C   3.54082428806255     -0.58651696388540     -0.00877488254560
  C   3.56612809769757     -1.92080743991526      0.46406770285123
  N   2.46539174188326     -2.53718512590413      0.97763209175092
  H   2.52350260040538     -3.52657027657200      1.14076499521988
  H   1.56785281963424     -2.14448218381293      0.73308693895219
  C   4.78776271267983     -2.61119375502466      0.44018635136417
  C   5.94001452032621     -2.03255756755411     -0.03938576822822
  C   5.92038345279093     -0.72977803618179     -0.52437321655429
  C   4.72993677725397     -0.03632076970106     -0.49923023932469
  H   4.71223097504342      0.97231039807637     -0.90258154099878
  H   6.81910759527442     -0.26807174578184     -0.92328550152228
  H   6.86433464017065     -2.60625859171651     -0.04348363538020
  H   4.80801879873867     -3.63275173949534      0.81477069057118
  C   2.37890787529558      1.62909367520933      0.04696108717912
  C   1.21869797326461      2.38580881946541      0.03591772338168
  C   1.19448921058486      3.77687909183575      0.05123986275952
  C   0.00115686581433      4.49381007484364      0.01547231986749
  C   -1.19281455693405      3.77812357621060     -0.02857954188331
  C   -1.21783954422025      2.38665640792087     -0.02650677152782
  C   -2.37867298108651      1.63191635518996     -0.04505759272833
  H   -3.32342326476697      2.15793085971931     -0.10291495866716
  N   -0.00014410836846      1.68393586711433      0.00250262087514
  H   -2.15029190404994      4.29025397665381     -0.05627191040480
  H   0.00151780824065      5.57783134687784      0.02162927634518
  H   2.15235853229464      4.28810135125963      0.08334593968786
  H   3.32536057930514      2.15236185190664      0.10580421502224
  H   -2.50834442884147     -3.54401876708583     -1.08710868570268
  H   -1.55862703577173     -2.14985248992321     -0.69808710445809
