44
reopt_t-t0-wb2plyp_2s-p.xyz
  N     -2.380306   -2.608641   -0.182482
  C     -3.527413   -1.984660   -0.158121
  C     -3.567185   -0.520919   -0.071170
  C     -4.848793    0.064783   -0.050308
  C     -6.013138   -0.681085   -0.108653
  C     -5.984376   -2.077819   -0.192959
  C     -4.765727   -2.702613   -0.216722
  H     -4.700922   -3.786931   -0.282688
  H     -6.905699   -2.650916   -0.239618
  H     -6.968404   -0.161745   -0.087608
  H     -4.942127    1.142330    0.011444
  C     -2.399319    0.282465   -0.011313
  N     -1.133082   -0.298431   -0.035228
  C      0.034913    0.346989    0.003719
  N      1.124890   -0.345988   -0.034739
  C      2.332220    0.281629   -0.011144
  C      3.541919   -0.563342   -0.112432
  C      3.599244   -1.869344    0.419414
  N      2.544287   -2.436480    1.081043
  H      2.596784   -3.427812    1.239779
  H      1.634411   -2.064027    0.852941
  C      4.801266   -2.580313    0.304937
  C      5.905173   -2.040649   -0.317179
  C      5.850631   -0.762647   -0.858080
  C      4.674615   -0.049700   -0.745857
  H      4.614262    0.940349   -1.189374
  H      6.708721   -0.334048   -1.367975
  H      6.817449   -2.628944   -0.389409
  H      4.849934   -3.583311    0.724179
  C      2.408131    1.634929    0.088976
  C      1.224605    2.420274    0.136022
  C      1.218206    3.784010    0.233839
  C     -0.005281    4.487232    0.274338
  C     -1.186574    3.818349    0.218895
  C     -1.229329    2.405353    0.122567
  C     -2.394464    1.682221    0.073335
  H     -3.317900    2.243381    0.106727
  N      0.013662    1.727568    0.080017
  H     -2.136449    4.342827    0.251674
  H      0.000998    5.571262    0.350686
  H      2.169425    4.302326    0.278133
  H      3.356474    2.152713    0.157628
  H     -2.508716   -3.612463   -0.246490
  H     -1.106786   -1.314411   -0.104933
