48
Coordinates from ORCA-job reopt_t-s1-wb2plyp_2s-p
  N   -7.11794126610555     -2.57567644586250     -0.08967974964762
  C   -5.95548365336876     -1.84399700425686     -0.03531397843325
  C   -4.75379071835449     -2.44349971312410      0.30367833844849
  C   -3.54364884896026     -1.74142447292381      0.32792008534636
  N   -2.41512835760265     -2.40140138143465      0.69375188802564
  H   -1.53227096186827     -1.94853586727127      0.50605698441120
  H   -2.45342600498715     -3.40189903717671      0.76367925129479
  C   -3.53975387498872     -0.35675666673309      0.00641224062107
  C   -2.32548887289813      0.46453451987964      0.02395754386956
  N   -1.13242602254507     -0.13301667412506      0.01231063072586
  C   -0.00046482328911      0.53489189586041      0.00525014862490
  N   1.13093186500007     -0.13408012348232     -0.00139165022898
  C   2.32437366157312      0.46266830615317     -0.01644942607959
  C   3.53848716740703     -0.35861053419529     -0.00194007555235
  C   4.77130920467527      0.21410678430466      0.33347217711648
  C   5.95575353266287     -0.48050525780527      0.35544333056714
  C   5.95605254191673     -1.84236712608563      0.02531423980027
  N   7.12081690841321     -2.57055212541889      0.07023013826986
  H   7.98459183542246     -2.05649917046716      0.03707793726637
  H   7.13732688768636     -3.44643805498657     -0.42396853409766
  C   4.75276776829841     -2.44456331554855     -0.30330916653819
  C   3.54156520172548     -1.74395287982394     -0.32049685282415
  N   2.41109312458015     -2.40558371710574     -0.67690767255447
  H   1.52898039237277     -1.95231801491993     -0.48680756557593
  H   2.44949966170996     -3.40605628761920     -0.74677856078627
  H   4.73792702808447     -3.50396284270929     -0.55428008462846
  H   6.88119979570868      0.01370839793693      0.63996090747855
  H   4.80362055856747      1.26185868335609      0.61590479854876
  C   2.37957067107251      1.87067628046669     -0.04944335715325
  C   1.22247125079176      2.62398427131417     -0.03210874946029
  C   1.20125679537290      4.02019251881133     -0.04309053504748
  C   0.00134888512973      4.71751760147458      0.00100771584293
  C   -1.19920257424914      4.02137833916535      0.04647435517196
  C   -1.22188687099016      2.62507757521019      0.03824808387203
  C   -2.37967121498130      1.87265841427505      0.05534039797564
  H   -3.31992631034526      2.40533711282444      0.11469293739429
  N   0.00005029483845      1.93812088200420      0.00402692124605
  H   -2.15056118925336      4.54295710338526      0.07835157490574
  H   0.00190105983949      5.80355264859839     -0.00017307831569
  H   2.15320784058225      4.54065803350687     -0.07624182150309
  H   3.32009385875278      2.40260265991714     -0.11090768121477
  C   -4.77128274293493      0.21418484505444     -0.33669690460184
  C   -5.95480155852550     -0.48215097675254     -0.36594310638808
  H   -6.87886007128785      0.01091526410293     -0.65701762490528
  H   -4.80301518080769      1.26183014024934     -0.61985631812928
  H   -4.73924956785952     -3.50254562964025      0.55604176570538
  H   -7.13639038211583     -3.45034526238961      0.40654894528962
  H   -7.98318939686959     -2.06355776451682     -0.06408366085106
