44
Coordinates from ORCA-job reopt_t-s1-wb2plyp_2s-p
  N   -2.42809004944132     -2.59734017973920     -0.81162961030799
  C   -3.54806794229502     -1.94660844822166     -0.39259844317544
  C   -3.54295290070580     -0.58348652466777     -0.00488510306893
  C   -4.75518297497715     -0.00881334906526      0.39605281533508
  C   -5.94510142170838     -0.70276357073006      0.41099670486816
  C   -5.94311165362707     -2.03360947644153      0.00868712463858
  C   -4.77001189551610     -2.63723231051834     -0.38019350579355
  H   -4.77244393938578     -3.68070696189565     -0.68932274013379
  H   -6.86668001747250     -2.60853628489405      0.00639960287207
  H   -6.86099207885335     -0.21864761362959      0.73779905743556
  H   -4.75946516117264      1.02357360451533      0.73241089021770
  C   -2.32318340458479      0.23917444114819     -0.01927137790226
  N   -1.13464822047807     -0.36238418457629     -0.00260990481474
  C   -0.00222740937877      0.30574173585496      0.00555805154898
  N   1.12857796875024     -0.36551785268487      0.00965107060774
  C   2.31782523167929      0.23406511220664      0.02180178934917
  C   3.53794021875697     -0.58793948586955     -0.00977590369720
  C   3.55740759864716     -1.94033719957827      0.41131681075429
  N   2.45126208276284     -2.57779674555071      0.88638292990614
  H   2.50987066914572     -3.57163741973408      1.01869180496543
  H   1.55469362631887     -2.17548517574313      0.65843750553080
  C   4.77861657230889     -2.63056319261406      0.37680525198538
  C   5.93844975717907     -2.03473595757206     -0.06221372973914
  C   5.92623786434635     -0.71325124680661     -0.49337773908343
  C   4.73606250188779     -0.02004767396508     -0.45822109065725
  H   4.72744039735435      1.00507216478946     -0.81724817582785
  H   6.83128694147682     -0.23585407897215     -0.85804585074713
  H   6.86256327063613     -2.60866167772905     -0.07528401542703
  H   4.79232390072153     -3.66632267139032      0.71052476086773
  C   2.37882051653595      1.63881058573096      0.06292355360343
  C   1.22240563023269      2.39376035602002      0.05038111778254
  C   1.20246663430293      3.78943495590922      0.06848966533782
  C   0.00362637471459      4.48734718176204      0.02218233179260
  C   -1.19716784341845      3.79296743565239     -0.03250277613458
  C   -1.22119179962299      2.39716175916420     -0.02921787583932
  C   -2.37975311761407      1.64517958202778     -0.05208936260019
  H   -3.32180074019839      2.17460107686619     -0.11520245169666
  N   -0.00028987651072      1.70892796795968      0.00829188666059
  H   -2.14762221747412      4.31593934849018     -0.06718581897362
  H   0.00491766702814      5.57330187728240      0.02824243458510
  H   2.15467315658251      4.30892324224235      0.10763239955088
  H   3.32363731651573      2.16361788940087      0.12793956005546
  H   -2.48257149993812     -3.59390811121940     -0.92204659118405
  H   -1.53837145061858     -2.18312116027677     -0.57878457484045
