44
Coordinates from ORCA-job reopt_t-s0-wb2plyp_2s-p
  N   -6.85840094466777     -3.03421147724340     -0.07748191005313
  C   -5.76102966815906     -2.20626653803810     -0.02873429665736
  C   -4.46484159597061     -2.71923391338867     -0.16659323892268
  C   -3.36729013046488     -1.87959241128879     -0.15655265020644
  C   -3.51271669297967     -0.49611291246519     -0.01823047628634
  C   -4.80666837237087      0.01130349567667      0.12234894181279
  C   -5.91116748594784     -0.82125736318161      0.11739189671955
  H   -6.91207471812881     -0.39843122469920      0.23090866584813
  H   -4.96791765247753      1.08189900428117      0.25406859673313
  C   -2.31432420988045      0.36043902912766     -0.01944307929389
  N   -1.13943357451708     -0.27186293352698     -0.00306390625907
  C   -0.00011425188145      0.39626852990237     -0.00304253804242
  N   1.13924579857564     -0.27182814227371     -0.00320860875171
  C   2.31415604947613      0.36034879221699      0.01413956134723
  C   3.51246200502172     -0.49634038924311      0.01458127161550
  C   4.80723845246683      0.01141858128129     -0.11748306771622
  C   5.91164189813228     -0.82120114657353     -0.10927419210006
  C   5.76066200761011     -2.20667130634863      0.03169822882697
  N   6.85792738368856     -3.03434656586530      0.08521018132856
  H   7.72608919120581     -2.67691783835287     -0.29018777102762
  H   6.70111356328414     -4.01871633901060     -0.08507215818748
  C   4.46368714309895     -2.72007320013266      0.16017209689313
  C   3.36624511280242     -1.88028260828505      0.14713558226161
  H   2.35575145107683     -2.27823903605886      0.23908779252903
  H   4.32379565912475     -3.79796577656995      0.27191580814781
  H   6.91326187116286     -0.39815581039975     -0.21534209401507
  H   4.96949330216765      1.08247368073652     -0.24403205711773
  C   2.38932561374912      1.73973963645962      0.04020284106412
  C   1.21019874209932      2.49712259416638      0.02110763282614
  C   1.19901639896350      3.89802670776043      0.02440020060874
  C   -0.00006906641316      4.58307165293552     -0.00036310636682
  C   -1.19924667402166      3.89810525958654     -0.02594373684528
  C   -1.21050692550868      2.49725413787882     -0.02460607915117
  C   -2.38961744010005      1.73979887058375     -0.04452393458542
  H   -3.33258032739472      2.27853889716856     -0.08431622992808
  N   -0.00015748041130      1.81562954628042     -0.00217424566884
  H   -2.15740120108293      4.41489704781105     -0.04389213539927
  H   -0.00000163342446      5.67500443224003      0.00044487437525
  H   2.15722505724004      4.41467802579844      0.04323762307900
  H   3.33209375535394      2.27871827129838      0.08041060011919
  H   -2.35736157232878     -2.27735689220982     -0.25498531924529
  H   -4.32566575494217     -3.79675911857675     -0.28276119230541
  H   -7.72424366950542     -2.67772112558580      0.30415160366096
  H   -6.70006865766165     -4.01863564198252      0.09086993439471
