44
reopt_t-t0-wb2plyp_2s-p.xyz
  N     -2.378509   -2.627471   -0.167112
  C     -3.524568   -2.001409   -0.152134
  C     -3.562805   -0.536734   -0.077936
  C     -4.843995    0.050328   -0.066043
  C     -6.009040   -0.694847   -0.120710
  C     -5.981583   -2.092303   -0.191982
  C     -4.763510   -2.718517   -0.207145
  H     -4.699658   -3.803578   -0.262363
  H     -6.903467   -2.664839   -0.234867
  H     -6.963850   -0.174399   -0.107099
  H     -4.936417    1.128474   -0.014063
  C     -2.394404    0.266410   -0.020556
  N     -1.128449   -0.315580   -0.035669
  C      0.039845    0.329079    0.007119
  N      1.129460   -0.364933   -0.022409
  C      2.337265    0.261397    0.008143
  C      3.546735   -0.584778   -0.084665
  C      3.598193   -1.892788    0.443029
  N      2.537707   -2.461073    1.094779
  H      2.587418   -3.453211    1.249377
  H      1.630086   -2.086369    0.861533
  C      4.799982   -2.605062    0.334424
  C      5.909362   -2.064597   -0.277291
  C      5.860922   -0.784306   -0.813202
  C      4.684984   -0.070363   -0.707358
  H      4.629231    0.921234   -1.147946
  H      6.723415   -0.354897   -1.314927
  H      6.821197   -2.654102   -0.345217
  H      4.843897   -3.610108    0.749348
  C      2.413807    1.614876    0.104894
  C      1.230811    2.401530    0.138975
  C      1.225408    3.765854    0.228301
  C      0.002611    4.470789    0.253400
  C     -1.179052    3.802980    0.192729
  C     -1.222949    2.389294    0.106135
  C     -2.388546    1.666870    0.054195
  H     -3.311556    2.229172    0.078005
  N      0.019534    1.709957    0.077007
  H     -2.128400    4.328986    0.212935
  H      0.009641    5.555346    0.321925
  H      2.176925    4.283250    0.276645
  H      3.362147    2.132062    0.177825
  H     -2.508414   -3.631565   -0.222788
  H     -1.102404   -1.331948   -0.100480
