48
reopt_t-s1-wb2plyp_2s-p.xyz
  N     -7.115717   -2.543401   -0.102366
  C     -5.954335   -1.811331   -0.042463
  C     -4.751197   -2.412618    0.286978
  C     -3.541247   -1.710129    0.312047
  N     -2.410384   -2.373308    0.662366
  H     -1.529154   -1.914028    0.482452
  H     -2.447863   -3.373975    0.727783
  C     -3.539946   -0.322029    0.002922
  C     -2.325854    0.499420    0.019062
  N     -1.132768   -0.097692    0.003214
  C     -0.000829    0.569891   -0.002919
  N      1.130100   -0.099656   -0.009261
  C      2.323850    0.496507   -0.017607
  C      3.537190   -0.325143    0.005380
  C      4.767541    0.246741    0.351335
  C      5.951183   -0.448806    0.382644
  C      5.953030   -1.810446    0.050859
  N      7.117163   -2.538749    0.104916
  H      7.980914   -2.024185    0.080726
  H      7.139082   -3.414114   -0.389973
  C      4.752388   -2.411417   -0.288669
  C      3.541592   -1.710413   -0.313768
  N      2.413086   -2.370753   -0.677870
  H      1.530523   -1.914757   -0.496252
  H      2.451798   -3.370629   -0.754344
  H      4.739096   -3.470329   -0.541899
  H      6.874728    0.043777    0.676114
  H      4.798205    1.294173    0.635323
  C      2.379879    1.904372   -0.051369
  C      1.223119    2.658304   -0.037273
  C      1.202369    4.054671   -0.048215
  C      0.002572    4.752276   -0.006050
  C     -1.198364    4.056499    0.037348
  C     -1.221614    2.660166    0.030139
  C     -2.379560    1.907744    0.049576
  H     -3.319714    2.440889    0.105520
  N      0.000269    1.972909   -0.003921
  H     -2.149349    4.578727    0.068602
  H      0.003386    5.838337   -0.006245
  H      2.154396    4.575173   -0.079340
  H      3.320945    2.435736   -0.107857
  C     -4.774023    0.251136   -0.328093
  C     -5.956895   -0.445809   -0.358799
  H     -6.882861    0.048724   -0.641484
  H     -4.808518    1.301297   -0.601418
  H     -4.734842   -3.474119    0.528779
  H     -7.133781   -3.423564    0.383963
  H     -7.981289   -2.032098   -0.071782
