43
reopt_t-s1-wb2plyp_2s-p.xyz
  N      2.530597    2.639318   -0.271263
  C      3.636132    1.881762   -0.089129
  C      3.597380    0.467160    0.052787
  C      4.821214   -0.199677    0.230249
  C      6.034443    0.445324    0.263841
  C      6.058264    1.829808    0.113414
  C      4.887632    2.524400   -0.057180
  H      4.908394    3.606215   -0.172516
  H      7.002930    2.369032    0.133010
  H      6.951844   -0.117392    0.410886
  H      4.823014   -1.275234    0.365640
  C      2.345860   -0.299959    0.021265
  N      1.182580    0.345846    0.020756
  C      0.022956   -0.277564    0.009247
  N     -1.092657    0.407049    0.009278
  C     -2.275515   -0.216890    0.000605
  C     -3.517710    0.555239    0.007575
  C     -3.556900    1.971941    0.029518
  N     -2.444643    2.745263    0.044018
  H     -2.540036    3.742474    0.074515
  H     -1.538929    2.305669    0.053867
  C     -4.815554    2.598756    0.035714
  C     -5.984463    1.877091    0.019691
  C     -5.953211    0.484534   -0.002567
  C     -4.731792   -0.146528   -0.009173
  H     -4.678748   -1.229617   -0.029184
  H     -6.872715   -0.094154   -0.017133
  H     -6.936132    2.404610    0.025463
  H     -4.846656    3.686232    0.053170
  N     -2.377126   -1.555102   -0.015062
  C     -1.299849   -2.286059   -0.019451
  C     -1.352828   -3.684178   -0.048427
  C     -0.188251   -4.437709   -0.070116
  C      1.050874   -3.811987   -0.059174
  C      1.149872   -2.416328   -0.023390
  C      2.337826   -1.718961   -0.011372
  H      3.250113   -2.297387   -0.046931
  N     -0.034852   -1.677713    0.002827
  H      1.971236   -4.387164   -0.078035
  H     -0.245948   -5.521745   -0.097897
  H     -2.339359   -4.133441   -0.059273
  H      2.624263    3.636708   -0.316389
  H      1.624940    2.199480   -0.218032
