39
Coordinates from ORCA-job reopt_t-t0-wb2plyp_2s-p
  C   -5.91148319208043     -2.29739835955791     -0.00645835807959
  C   -4.65769964110900     -2.89442637220503     -0.00233978008915
  C   -3.51088231722804     -2.12358504107844      0.00285037215229
  C   -3.58453192755526     -0.72566593650062      0.00385680473556
  C   -4.85500095219408     -0.13835729840776      0.00067966285876
  C   -6.00063657982347     -0.91383747446978     -0.00445990374683
  H   -6.97472026769287     -0.42975783046658     -0.00706939021782
  H   -4.96561636809770      0.94205715421002      0.00172475814965
  C   -2.35145068315990      0.05962290546816      0.00638946893200
  N   -1.17421123116374     -0.61064506016677      0.00843894351630
  C   -0.04281840895197     -0.00097025923841      0.00597794889004
  N   1.10910016443548     -0.67641189405774      0.00569786910032
  C   2.24360754797550     -0.03580394313421      0.00213714211724
  C   3.49269685911209     -0.82435011192684      0.00103696030420
  C   3.43795967170701     -2.21591337346999      0.00264043712034
  C   4.60542427792718     -2.95778740343033      0.00089872310464
  C   5.83715536667413     -2.31838586129477     -0.00243040695984
  C   5.89753010069163     -0.93313737813060     -0.00395285563123
  C   4.73049273294974     -0.18800493248291     -0.00224824269127
  H   4.76310534469215      0.89635833132305     -0.00350292527066
  H   6.86104400460291     -0.42884446590146     -0.00663154108543
  H   6.75383328303968     -2.90399443215041     -0.00386884889863
  H   4.55568304535254     -4.04394944720630      0.00207628631049
  H   2.46605642849596     -2.69908627258886      0.00512409677900
  N   2.37039693908864      1.30573651473381      0.00016307742580
  C   1.28079630734171      2.01226628102459      0.00060101403274
  C   1.34296790745145      3.42934262777161     -0.00151742397491
  C   0.18748791239236      4.19399653799021     -0.00159935457984
  C   -1.04681440738551      3.55959863431246      0.00040855080953
  C   -1.14800760271599      2.16938337250865      0.00295015026769
  C   -2.33859506505446      1.46437101032457      0.00431674067173
  H   -3.25728328238497      2.03934078658590      0.00341972785855
  N   0.04402425483026      1.41156775838457      0.00320793224815
  H   -1.96904145103573      4.13321724907898      0.00001511215040
  H   0.24567886682062      5.27778930228738     -0.00339088422858
  H   2.33707588951039      3.86125844776125     -0.00322846078600
  H   -2.52991956907065     -2.58647319038515      0.00568749033906
  H   -4.57308913626212     -3.97886463714294     -0.00332598209223
  H   -6.81136760415673     -2.90746460924999     -0.01065516130753
