47
Coordinates from ORCA-job reopt_t-s1-wb2plyp_2s-p
  N   -7.21613704682300     -2.38157651195858      0.05677946262374
  C   -6.00866475043914     -1.72931627972184      0.00503913143291
  C   -5.95786691022937     -0.32734703114977      0.05590199219011
  C   -4.73907680144611      0.29947040986217      0.04247607723350
  C   -3.51894166467066     -0.38917584868374     -0.01849433082778
  C   -3.57141819135029     -1.80743173212803     -0.07799326268682
  N   -2.45832777551478     -2.57363832313288     -0.16709175383566
  H   -1.55746965915506     -2.12683129296861     -0.09386340435585
  H   -2.54594371968529     -3.57069314241819     -0.10915836930154
  C   -4.82144285720793     -2.43855104506558     -0.06385324888638
  H   -4.85098471827591     -3.52616961793027     -0.10741917065666
  C   -2.28078791295752      0.37934179671253     -0.01264294190483
  N   -1.09665311273747     -0.24626781550396     -0.01082016863721
  C   0.02080936859193      0.43566263705412     -0.01128372297924
  N   1.17883071795267     -0.18817563338878     -0.01007369577425
  C   2.34474098523500      0.45884503256588     -0.01072370299946
  C   3.59222813758658     -0.30194892631389     -0.02908273735143
  C   4.81545973521855      0.34708911736007     -0.25618343145340
  C   6.02829949844984     -0.29157063918147     -0.27781250364087
  C   6.07760478168351     -1.67736958482355     -0.06147242486278
  N   7.27504427106827     -2.34486750756019     -0.10796661112692
  H   8.11418875855378     -1.80064276878880     -0.00404020103380
  H   7.31373602648582     -3.26376704526140      0.29874889852017
  C   4.89108092005238     -2.35508676400682      0.15866773072188
  C   3.64780853885006     -1.71064641426213      0.17556509675491
  N   2.54002194745619     -2.44985806658027      0.41396346690969
  H   1.64000494994949     -2.01021121419303      0.28631809353035
  H   2.62230626314326     -3.44932833108441      0.43943757686157
  H   4.91386114483016     -3.43133497469687      0.32108789270649
  H   6.94180354801324      0.26456719041658     -0.47217761067173
  H   4.81830938958228      1.41525504068030     -0.44536009208823
  C   2.33736678351837      1.87741042615037      0.01614682837628
  C   1.15007871126842      2.57692844744452      0.01385393486370
  C   1.05346408162143      3.97175603939095      0.04645551046224
  C   -0.18500296981613      4.60055355975539      0.04840815007155
  C   -1.35016683971431      3.84662119767100      0.02829381244126
  C   -1.29943256443449      2.44799404067049      0.00151636110225
  N   -2.37898892640079      1.71897168383996     -0.00166194264502
  N   -0.03540181489816      1.83711845740282     -0.02230580123958
  H   -2.33660289986785      4.29599831599100      0.03831449539154
  H   -0.24129203531481      5.68511673463526      0.07130457990157
  H   1.97494331141975      4.54488136083699      0.07081534172521
  H   3.25170144806407      2.45294937123669      0.06458513252729
  H   -4.69488096322467      1.38243249973278      0.08285672468259
  H   -6.87730788654799      0.25022264377235      0.11308273076338
  H   -7.23838185111056     -3.34014826197168     -0.24652631435946
  H   -8.03579998194999     -1.84836120655796     -0.17835501839371
