42
Coordinates from ORCA-job ./reopt_t-s0-wb2plyp_2s-p
  N   4.93659200177713     -1.60397193698534     -0.27294549878859
  C   4.92452369248770     -0.26181905681433     -0.10125721048181
  C   6.14572974289773      0.44388428298849     -0.18059284525768
  C   6.20937877962505      1.80864288800840     -0.02626229719001
  C   5.04819368677128      2.54782499641072      0.22022740382935
  C   3.84567164128070      1.88006766085592      0.28668319259175
  C   3.73496673016538      0.48735993775173      0.12134365379123
  C   2.40983256398473     -0.13754673626218      0.17239565768509
  N   2.35487649398206     -1.47473229242596      0.32771401728257
  C   1.21126691825045     -2.11303964303783      0.39157827286094
  N   1.18565319524220     -3.43957388825103      0.52513147214943
  C   0.00178093035729     -4.01498912888844      0.58032455035994
  N   -1.18282277318460     -3.44175041970474      0.52197212105214
  C   -1.21066659773968     -2.11497877380235      0.38976149219742
  N   -2.35512605268342     -1.47838845047396      0.32618438403298
  C   -2.41073058986409     -0.14066501259591      0.17473240409674
  C   -3.73594452139223      0.48486098835112      0.13078750021159
  C   -3.84670175902270      1.87327814820120      0.32640616887299
  C   -5.04914475315035      2.54252668810488      0.26946202150161
  C   -6.20885034462116      1.80906804673859      0.00109487322878
  C   -6.14447041797101      0.44781694347484     -0.18364393305122
  C   -4.92391852102584     -0.25936041903713     -0.11383874080639
  N   -4.93355372354592     -1.59794543584797     -0.31574704690447
  H   -4.09319298416069     -2.11619403130541     -0.06679124491210
  H   -5.82555249311604     -2.06713990529661     -0.37031494712345
  H   -7.05550566846279     -0.12034211086511     -0.38487155915184
  H   -7.17689850849923      2.31174545237895     -0.05317996541469
  H   -5.09339776239559      3.61852285486747      0.43932332828565
  H   -2.94800484812232      2.44286796067860      0.56214766407380
  C   -1.24009095983510      0.59633247853324      0.06173547219112
  C   -0.00062849374782     -0.04333025632425      0.14870199152045
  C   1.23746961166477      0.59787335656507      0.06038273769768
  H   1.23335990797047      1.66932428971787     -0.11508832992960
  N   -0.00006946705607     -1.41656441041011      0.31985277509120
  H   -1.23906005675467      1.66785253232034     -0.11416761609706
  H   0.00264350332592     -5.10550578203520      0.68791218888899
  H   2.94657580547333      2.45580068643670      0.50455245478200
  H   5.09162528912785      3.62742492060916      0.36548171385439
  H   7.17756964946514      2.31018650875928     -0.08813726741563
  H   7.05736837612704     -0.12886170927272     -0.36542814576548
  H   4.09107207705658     -2.11782792966883     -0.03231136911559
  H   5.82840269931849     -2.07429029244715     -0.31867949472424
