46
Coordinates from ORCA-job reopt_t-s0-wb2plyp_2s-p
  N   -7.31964336535082      2.15756683678180      0.09235117910030
  C   -6.08966870781901      1.55697940281374      0.03228322054808
  C   -5.99348628526773      0.14868887710071      0.04650014066409
  C   -4.75572703626859     -0.43795939485142      0.02739756804632
  C   -3.55644339104457      0.29984603037609     -0.00395663006930
  C   -3.65085799678431      1.72207946559651     -0.02393206868279
  N   -2.56234750836776      2.51959365998098     -0.07887694550810
  H   -1.64740148743253      2.07510957543915     -0.03096738537318
  H   -2.67615457645705      3.51843058900175     -0.00248128996004
  C   -4.92637878382047      2.31129572533561     -0.00357215994434
  H   -4.99404406740732      3.40215181577734     -0.01790969830255
  C   -2.30354000224320     -0.43211323395961     -0.00343107117863
  N   -1.14734225248808      0.25927581749931     -0.00292747975388
  C   0.00000470838674     -0.39004691416012      0.00209377212004
  N   1.14741408416920      0.25910998939766      0.00747924046414
  C   2.30361183117296     -0.43224641938046      0.00641911001709
  C   3.55643802962812      0.29984851761578      0.00397918894631
  C   3.65081501526197      1.72210268435772      0.02687955060242
  N   2.56242699338564      2.51939516477805      0.08728768832666
  H   2.67595295678392      3.51855221324777      0.01474967397302
  H   1.64728772291576      2.07492872897612      0.04281384423289
  C   4.92631994201178      2.31137135669198      0.00340340263190
  C   6.08956329294653      1.55719957977885     -0.03838893373599
  N   7.31937586297637      2.15804460387498     -0.10126613996804
  H   8.12634866408717      1.59801724998884      0.13682313219074
  H   7.38322943865861      3.13520594650801      0.14908717990769
  C   5.99333908847933      0.14896285660237     -0.05588871920178
  C   4.75565474916909     -0.43777037260384     -0.03360626089352
  H   4.66272548715674     -1.52298074388748     -0.04845674216657
  H   6.89934575409618     -0.45847943238026     -0.09363113456226
  H   4.99406911810299      3.40217663020503      0.02011621144791
  N   2.36015338251289     -1.75900846612470      0.00065862304568
  C   1.22656310632735     -2.44967354579032     -0.00002194914363
  N   -0.00001191384985     -1.78799497445689      0.00103180758792
  C   -1.22661556022272     -2.44961482020286      0.00103684722856
  N   -2.36012892328065     -1.75885482060482     -0.00001372614287
  C   -1.20746193442651     -3.84536357425163      0.00061491360374
  C   -0.00015554120512     -4.52147424506738     -0.00039341415473
  C   1.20721375076643     -3.84547387577609     -0.00101425168517
  H   2.17060194057562     -4.34999817470122     -0.00164870556186
  H   -0.00021737514653     -5.61348786444354     -0.00087780078384
  H   -2.17088428426826     -4.34983151471064      0.00078338104943
  H   -4.66280185474994     -1.52321452841395      0.03971657432009
  H   -6.89965224626640     -0.45882653131748      0.07918508333589
  H   -7.38277741546825      3.13536929359208     -0.15567878513536
  H   -8.12579235625216      1.59805419539749     -0.14970662318315
