42
Coordinates from ORCA-job ./reopt_t-s0-wb2plyp_2s-p
  N   5.31181332547046     -1.45968495411562      0.49241842029536
  C   5.30195789974569     -0.12315909715704      0.28154784180789
  C   6.52331391866811      0.58376108302113      0.34481934003455
  C   6.58813629626852      1.94353572919254      0.15145462584780
  C   5.42830420728572      2.67591200150859     -0.12011403766939
  C   4.22549120188341      2.00722917732373     -0.17143125046040
  C   4.11366403478654      0.61994655102578      0.03324772041582
  C   2.78845637557303     -0.00573126388510     -0.00384839092555
  N   2.73300439083747     -1.34585150942896     -0.12769587259908
  C   1.58880188735270     -1.98497377303639     -0.17684445459416
  N   1.56293755747202     -3.31408502344208     -0.27936451817956
  C   0.37884694558452     -3.89055845264489     -0.31968956424229
  N   -0.80540147552815     -3.31582362636707     -0.27349215071293
  C   -0.83310741306817     -1.98621690080075     -0.17297946884041
  N   -1.97750707984014     -1.34833178492457     -0.12295013477742
  C   -2.03134536215155     -0.00759864644037     -0.00126565940543
  C   -3.35607323256765      0.62042630270208      0.03260243468894
  C   -3.46856354246374      1.99896575205459     -0.22004852974776
  C   -4.67051586782217      2.67071849163590     -0.17360059437107
  C   -5.82572525896787      1.94993234226072      0.14244954325925
  C   -5.75891810925285      0.59712618428652      0.38305774059353
  C   -4.53980793665268     -0.11244885787974      0.32500836697344
  N   -4.54341406468826     -1.44180932403712      0.58599885433500
  H   -3.71106133338475     -1.97000719411271      0.33115072594838
  H   -5.43465355881388     -1.90939433289617      0.66445657921511
  H   -6.66697575080768      0.03865641429290      0.62138810226125
  H   -6.79275813837347      2.45525245873997      0.18981104529895
  H   -4.71785876231606      3.73853648738166     -0.38845001895884
  H   -2.57259422335208      2.55602284732147     -0.49365945877274
  C   -0.86128282939492      0.73220279084659      0.09245790340125
  C   0.37830473534111      0.09049898093262      0.01815366477995
  C   1.61638391777434      0.73296588453605      0.09084920494232
  H   1.61383892714838      1.80808530865150      0.24220444788465
  N   0.37786735856654     -1.28638632360063     -0.12102597770094
  H   -0.86232317525468      1.80734453513988      0.24555399717649
  H   0.37944625418585     -4.98332912539625     -0.40132967744161
  H   3.32740621252871      2.57681435712220     -0.40882546876343
  H   5.47303154303419      3.75090056952929     -0.29599637116321
  H   7.55635144935327      2.44631330891134      0.20178458611925
  H   7.43396020518751      0.01607872923439      0.54907206067413
  H   4.46739324605708     -1.97988407106421      0.26182840865889
  H   6.20258222459557     -1.92959802642178      0.55793898471402
