47
Coordinates from ORCA-job ./reopt_t-s1-wb2plyp_2s-p
  N   -7.21947314645761     -2.34395825194452      0.00479404471925
  C   -6.01070434320627     -1.69280820855861     -0.01997016626774
  C   -5.96045562878337     -0.29018957663400      0.01978141001724
  C   -4.74149516327269      0.33638950392295      0.02765525813882
  C   -3.52015571858058     -0.35255281787649     -0.00110188459794
  C   -3.57179674582900     -1.77174796748837     -0.04154896464954
  N   -2.45775619513067     -2.53845973791272     -0.08133427957376
  H   -1.55558846939652     -2.08981252494130     -0.05051459506182
  H   -2.54549961792382     -3.53682342210607     -0.07707985098608
  C   -4.82235367378942     -2.40276772268021     -0.05082110415814
  H   -4.85100162187917     -3.49086316380884     -0.08046134839760
  C   -2.28195453654340      0.41542888388654      0.00988727095470
  N   -1.09786646210318     -0.21053563876738      0.00989156281619
  C   0.01995546420707      0.47096698789081      0.00627969733367
  N   1.17777535484488     -0.15318366956886      0.00002949215811
  C   2.34435817684114      0.49308137027939     -0.01123014778976
  C   3.59127151778271     -0.26760503819552     -0.03860118835943
  C   4.81586135359994      0.38435153844174     -0.25118062979292
  C   6.02865428105004     -0.25374072915603     -0.27842698393042
  C   6.07742786532898     -1.64289178865285     -0.08285147824523
  N   7.27497153810921     -2.30899420733075     -0.13519441222427
  H   8.11440756517464     -1.76717260099261     -0.02234505808141
  H   7.31266065938604     -3.23602448589394      0.25246156946839
  C   4.89033074529515     -2.32365323344940      0.12327600557535
  C   3.64644193389451     -1.67962930426502      0.14466864500193
  N   2.53859485749682     -2.42319820515495      0.36136226080771
  H   1.63749372297621     -1.97914224753387      0.26024184581432
  H   2.62228819460168     -3.42179467621749      0.40109196027061
  H   4.91232794961419     -3.40236182130636      0.26871234865187
  H   6.94271015556582      0.30561774069728     -0.46057351709358
  H   4.82048137997472      1.45550898276563     -0.42201838417246
  C   2.33716766978474      1.91173544789320      0.01522040178532
  C   1.15018452544784      2.61153074073731      0.02382640960999
  C   1.05442236893001      4.00639743445462      0.05679784585783
  C   -0.18377643219235      4.63564105951210      0.06845805226383
  C   -1.34950987672294      3.88239253605819      0.05570620405520
  C   -1.29969057295270      2.48368759258301      0.02710446071590
  N   -2.37957016863892      1.75521421217090      0.02565982319111
  N   -0.03598332182354      1.87236742244245     -0.00109614908518
  H   -2.33558953170257      4.33243217878639      0.07101469335509
  H   -0.23936430134951      5.72018063397650      0.09202249699193
  H   1.97617019330666      4.57933968591467      0.07259809048291
  H   3.25157653908825      2.48775392720801      0.05347011849314
  H   -4.69824843311309      1.41976425358449      0.05749410529738
  H   -6.88069280326645      0.28813753593310      0.04950238488717
  H   -7.23485164754784     -3.30687170001540     -0.28448603980673
  H   -8.03314460009566     -1.81323192868772     -0.25494827644099
