47
Coordinates from ORCA-job reopt_t-s0-wb2plyp_2s-p
  N   -7.19432841892771     -2.40171400308857     -0.01738842233916
  C   -5.98960548319368     -1.74705194828164     -0.04954418575804
  C   -5.95166737560986     -0.33808776840660      0.01705112809578
  C   -4.73833378600788      0.29991230610334      0.02268204748473
  C   -3.51090502775798     -0.38652322062896     -0.03039061171007
  C   -3.54624894405644     -1.80965589540679     -0.09998222716888
  N   -2.42347767632514     -2.55575340662478     -0.17490049092942
  H   -1.52892491289325     -2.06978179591339     -0.12672608248380
  H   -2.49303800707106     -3.56132502402656     -0.16622843123446
  C   -4.79624371411322     -2.45147460790922     -0.10697567857002
  H   -4.81907446672182     -3.54303688751624     -0.15975605846671
  C   -2.28484169501772      0.39159451195103     -0.00910783412279
  N   -1.11130777432373     -0.24698185728444     -0.00894480921847
  C   0.02367346814511      0.44641502849300      0.00665203577436
  N   1.17270532046165     -0.18318538099642     -0.00329080985672
  C   2.34944364529790      0.48717000499834      0.01013566916059
  C   3.58336448528972     -0.29779633840918     -0.03302894216821
  C   4.78783345089355      0.32114952591910     -0.40478914918001
  C   5.99537660412553     -0.33413665276799     -0.45152194877683
  C   6.05067997580815     -1.69715633630296     -0.10701165354319
  N   7.23887907335361     -2.38215092306181     -0.18160703973243
  H   8.08908278023197     -1.83526927772214     -0.17581861371667
  H   7.29949975606374     -3.26418013892946      0.30878525132972
  C   4.87571902352120     -2.34138825275202      0.25404915764514
  C   3.63691958139081     -1.68301661664011      0.29319377497211
  N   2.53632228679104     -2.37699466675750      0.68267016196451
  H   1.63800005812534     -1.93935452715974      0.48125617305605
  H   2.60533577922613     -3.38326647815155      0.72691131265178
  H   4.90527897279374     -3.40267034025572      0.51427513356219
  H   6.89993033095018      0.18711537813789     -0.76926775073597
  H   4.76704984406324      1.36950096726903     -0.70298589539577
  C   2.35307560831299      1.86762464378618      0.06046209503307
  C   1.14254376651983      2.58064917299782      0.05941031869455
  C   1.05910379141785      3.97327097129067      0.09621486458833
  C   -0.18046541114740      4.59117547133225      0.10281350041409
  C   -1.34541569317528      3.85137833817253      0.07402449267034
  C   -1.29539402331356      2.45178393630519      0.03917564339662
  N   -2.39706559791847      1.72070569114061      0.01612325470276
  N   -0.03503925082592      1.84746230715661      0.02999526191803
  H   -2.33575235510699      4.30090212479050      0.07933516394325
  H   -0.23744528924091      5.68132364009781      0.13079923236958
  H   1.98641347380813      4.54351810916896      0.11835164609689
  H   3.27044324767436      2.44570272657008      0.12776819149126
  H   -4.68981935777326      1.38691812944839      0.07272090075850
  H   -6.88216234636703      0.23018877648419      0.06883021047017
  H   -7.21294130046058     -3.36794875768372     -0.31367214714291
  H   -8.02045695209423     -1.86669063508653     -0.24749127991224
