38
Coordinates from ORCA-job reopt_t-s1-wb2plyp_2s-p
  C   -5.93981739244882      2.15882207786081     -0.00498690218341
  C   -5.95521482954555      0.77150396018507      0.00012050757423
  C   -4.76692468711100      0.06179124182432      0.00392052077073
  C   -3.54597546123058      0.73451270932499      0.00275862620035
  C   -2.28104205062312     -0.00983396397800      0.00390037489469
  N   -1.14662158042937      0.67704740441954      0.00465184133696
  C   -0.00064915242779      0.04189313491480      0.00419404113734
  N   1.14479360258816      0.67828278571456      0.00410864888355
  C   2.27963741947649     -0.00785636994870      0.00234631588597
  C   3.54461637358772      0.73597258076494      0.00197135991949
  C   3.53801186628685      2.13083436141603      0.00530534999530
  C   4.72866370616901      2.83403824983644      0.00353916775971
  C   5.93990377136255      2.15661619096189     -0.00174008879822
  C   5.95385449159677      0.76963851936895     -0.00500667167340
  C   4.76467201187985      0.06170653479278     -0.00300569285500
  H   4.76562121677674     -1.02334275955235     -0.00588913592079
  H   6.90049792778780      0.23425134678609     -0.00939888965063
  H   6.87509886891697      2.71202317858319     -0.00340575499899
  H   4.71270569437278      3.92134075439090      0.00606991339027
  H   2.58466831475164      2.64962459042179      0.00894922651281
  N   2.33779155475420     -1.35388688915409      0.00059067745840
  C   1.22842864030747     -2.03333976623703      0.00077878515810
  N   -0.00000811307733     -1.36807662885743      0.00273310887788
  C   -1.22780011750426     -2.03450328330084      0.00198176782506
  N   -2.33800536784042     -1.35608068245631      0.00271670386738
  C   -1.20384110909372     -3.43725726047098     -0.00023966251646
  C   0.00169665981931     -4.12336309459799     -0.00161248876521
  C   1.20638744559945     -3.43589641528709     -0.00140090762534
  H   2.16647869804316     -3.93948933860153     -0.00302692022483
  H   0.00247655624016     -5.20972531058690     -0.00334172568179
  H   -2.16335606045572     -3.94192689092580     -0.00093162425590
  C   -3.53801580581762      2.12940765559624     -0.00137823052899
  C   -4.72773564462978      2.83436096370538     -0.00514683928375
  H   -4.71037789228106      3.92157575053897     -0.00853561645649
  H   -2.58412924288834      2.64701566940987     -0.00205963040472
  H   -4.76926760185680     -1.02335446961159      0.00716030100411
  H   -6.90245608513380      0.23704182015238      0.00090822319753
  H   -6.87457412020573      2.71494142929823     -0.00797763660790
