46
reopt_t-t0-wb2plyp_2s-p.xyz
  N      7.442845   -2.499934    0.083998
  C      6.231916   -1.852016    0.065596
  C      6.137318   -0.527017   -0.326803
  C      4.924585    0.173195   -0.324013
  N      4.912204    1.463874   -0.749507
  H      5.797153    1.928551   -0.846988
  H      4.103969    2.016887   -0.495512
  C      3.743711   -0.503332    0.077918
  C      2.414623    0.119733    0.064656
  N      2.355850    1.487851    0.121889
  C      1.230826    2.105639    0.150039
  N      1.186354    3.452706    0.204869
  C      0.022949    4.015429    0.249666
  N     -1.171972    3.426639    0.238520
  C     -1.164320    2.121831    0.168200
  N      0.015614    1.416846    0.128716
  C     -0.002424    0.002550    0.038126
  C      1.264247   -0.616753   -0.002411
  H      1.284483   -1.694233   -0.107083
  C     -1.212290   -0.637545   -0.008356
  C     -2.429192    0.060004    0.038181
  C     -3.716195   -0.555446   -0.007180
  C     -4.971946    0.198851    0.036287
  N     -4.930361    1.496089    0.123018
  H     -3.173470    1.986351    0.161355
  H     -1.189621   -1.716321   -0.080372
  H     -5.860105    1.900187    0.145184
  C     -6.216318   -0.512452   -0.023937
  C     -6.292139   -1.874153   -0.112780
  N     -7.489854   -2.564047   -0.119884
  H     -8.312061   -2.026916   -0.341286
  H     -7.479653   -3.470337   -0.558473
  C     -5.071307   -2.588789   -0.147341
  C     -3.846417   -1.951431   -0.099366
  H     -2.960518   -2.573670   -0.133472
  H     -5.097647   -3.674572   -0.207043
  H     -7.125138    0.085658    0.009292
  N     -2.302712    1.454153    0.131248
  H      0.006782    5.105115    0.301580
  C      3.878655   -1.833889    0.487944
  C      5.071336   -2.512404    0.492308
  H      5.123633   -3.540898    0.839965
  H      2.997969   -2.356448    0.849719
  H      7.035277   -0.001569   -0.647578
  H      8.190568   -2.101271   -0.457563
  H      7.426238   -3.505118    0.099827
