42
Coordinates from ORCA-job reopt_t-s1-wb2plyp_2s-p
  N   7.14834970118990      2.60372045206239     -0.08691884831267
  C   5.96613576648275      1.90503099325672     -0.03607728416349
  C   5.95920481293838      0.50749392689390     -0.02444640822771
  C   4.77052694783077     -0.19100414363233     -0.01288278874429
  C   3.54390168340582      0.47314657449695     -0.01134677353231
  C   2.28397334936574     -0.26314379237176     -0.00172034253528
  N   1.14852007561327      0.42615595781150      0.00174605338042
  C   0.00238435166682     -0.20646082667015      0.00503227871274
  N   -1.14312074041464      0.42825620100477      0.00863199353828
  C   -2.28076892586308     -0.25847213496011      0.00932962584283
  C   -3.54229836743508      0.47750713563919      0.01447100914963
  C   -3.55491611674144      1.87334699438645      0.02787061599394
  C   -4.74108794902469      2.57403743513796      0.03508759601076
  C   -5.96841372095129      1.90370540601385      0.02968267274377
  N   -7.15112476629168      2.60157048523791      0.07547316843753
  H   -7.12417172357252      3.57391662281428     -0.17998978581728
  H   -7.98591006173446      2.11736618651618     -0.20788101498454
  C   -5.95898481178235      0.50635729707670      0.01465607947955
  C   -4.76846360715460     -0.18884191431138      0.00769681613501
  H   -4.77427866174394     -1.27410904979393     -0.00413110984970
  H   -6.90295769845404     -0.03521783602226      0.01318729056682
  H   -4.72732682961403      3.66208334924569      0.04902225139726
  H   -2.60728746594160      2.40363364931027      0.03206196716675
  N   -2.33684682397139     -1.60585298947565      0.00581908932336
  C   -1.22669027751930     -2.28479771347300      0.00448688486129
  N   0.00139074001798     -1.61793771445134      0.00477189793377
  C   1.22822265149261     -2.28734304953083      0.00384666773848
  N   2.33961650398408     -1.61028691963671      0.00145437220528
  C   1.20431547760507     -3.68950587933428      0.00483886418496
  C   -0.00141504954655     -4.37697263905424      0.00442859157583
  C   -1.20563213190097     -3.68731407462168      0.00389927442681
  H   -2.16640466370202     -4.18956879176048      0.00406593995649
  H   -0.00240097515997     -5.46334368710624      0.00448188379691
  H   2.16412576919892     -4.19356107675436      0.00474034017852
  C   3.55402737308540      1.86863698756933     -0.02105010495915
  C   4.73830415035279      2.57280299600714     -0.03278351418849
  H   4.72172789660079      3.66082608572753     -0.04320919627910
  H   2.60512888358172      2.39679567776541     -0.01832015282793
  H   4.77854976874479     -1.27630956407034     -0.00362330807145
  H   6.90438221340791     -0.03197075151416     -0.02938308343401
  H   7.98465239856489      2.11934476305034      0.19161875093344
  H   7.12227166576619      3.57552920505886      0.17084347144791
