46
reopt_t-t0-wb2plyp_2s-p.xyz
  N     -7.332159    2.131491    0.023236
  C     -6.102518    1.531625    0.007252
  C     -6.001152    0.127879    0.033236
  C     -4.762049   -0.449689    0.043692
  C     -3.566046    0.286330    0.031212
  C     -3.667854    1.702773    0.007638
  N     -2.591451    2.518383   -0.014795
  H     -1.671784    2.109344    0.022895
  H     -2.722727    3.511495    0.015675
  C     -4.943071    2.286166   -0.004572
  H     -5.013203    3.372386   -0.023562
  C     -2.310587   -0.458231    0.037355
  N     -1.143931    0.237412    0.034426
  C     -0.033207   -0.428722    0.028301
  N      1.133683    0.195110    0.020016
  C      2.365059   -0.468882    0.007022
  C      3.594144    0.248328   -0.012676
  C      3.686499    1.706854   -0.001322
  N      2.592043    2.414393    0.037846
  H      2.795252    3.408048    0.043780
  H      1.166999    1.213122    0.018968
  C      4.982814    2.316322   -0.026701
  C      6.143928    1.591290   -0.073663
  N      7.393295    2.182095   -0.159651
  H      8.163088    1.642152    0.200644
  H      7.441322    3.153769    0.099578
  C      6.030336    0.182429   -0.086439
  C      4.802725   -0.459369   -0.050791
  H      4.756141   -1.541856   -0.060940
  H      6.937737   -0.416471   -0.133316
  H      5.017343    3.404450   -0.016168
  N      2.359086   -1.807325    0.004188
  C      1.251121   -2.472589    0.015263
  N     -0.004401   -1.806646    0.027643
  C     -1.230989   -2.477670    0.036376
  N     -2.361928   -1.762540    0.041145
  C     -1.223013   -3.847623    0.034799
  C      0.002137   -4.539838    0.023151
  C      1.197140   -3.886316    0.013747
  H      2.149050   -4.404623    0.003082
  H     -0.008066   -5.627189    0.020193
  H     -2.180226   -4.353336    0.040536
  H     -4.668986   -1.530391    0.061112
  H     -6.899794   -0.483602    0.048514
  H     -7.391571    3.103881   -0.223832
  H     -8.131326    1.572724   -0.220611
