42
Coordinates from ORCA-job reopt_t-t0-wb2plyp_2s-p
  N   7.12820365321589      2.61128597413916     -0.07394497551802
  C   5.95132842043524      1.90895173160791     -0.02949593944342
  C   5.95095559674844      0.51001844383308     -0.02620477048478
  C   4.76498289815649     -0.19118326889638     -0.01797915951983
  C   3.53693910950317      0.46966572305832     -0.01195624448315
  C   2.27534065102107     -0.27403253981016     -0.00453485608475
  N   1.14387614146364      0.42918575175633      0.00229892503962
  C   -0.00006569781098     -0.21718406599409      0.00584844762265
  N   -1.14419148384133      0.42900315722662      0.01139588985380
  C   -2.27551759817818     -0.27417661359300      0.01279795477389
  C   -3.53709614951730      0.46953534619791      0.01733138625109
  C   -3.53927132901709      1.86420919972834      0.02792685635132
  C   -4.72082787802339      2.57304749970001      0.03122900698541
  C   -5.95146441754759      1.90871130692961      0.02425131868270
  N   -7.12884536601264      2.61043884882961      0.06271673373792
  H   -7.10110582255353      3.58743214935771     -0.17310224589199
  H   -7.97169444566459      2.13099113911198     -0.20303332119803
  C   -5.95106891431635      0.50984257046711      0.01284677972157
  C   -4.76510378188750     -0.19135485977532      0.00986379879584
  H   -4.77416754075729     -1.27667350602701      0.00086339841180
  H   -6.89862697440834     -0.02513797825595      0.01047800547708
  H   -4.70132562126715      3.66090308651388      0.04239947982805
  H   -2.58661841344654      2.38464495081248      0.03255604930208
  N   -2.34065930393388     -1.60133829145318      0.01004613313034
  C   -1.22424249147939     -2.29157465341568      0.00611643813098
  N   -0.00006511145595     -1.59591948379686      0.00323820135439
  C   1.22421112673702     -2.29155190221669     -0.00101756492219
  N   2.34056093220135     -1.60115309426400     -0.00491472632450
  C   1.19650217150893     -3.68727270465399     -0.00115554358368
  C   -0.00009849673690     -4.41078969155377      0.00218754142732
  C   -1.19674833370209     -3.68731103642484      0.00538780402134
  H   -2.16696400242826     -4.17360170229315      0.00776328035012
  H   -0.00006966551078     -5.49377560117133      0.00198892761879
  H   2.16661254802808     -4.17376505831433     -0.00429478117390
  C   3.53912340775150      1.86438239990780     -0.01393134338780
  C   4.72065196436511      2.57321030168301     -0.02221338277834
  H   4.70108852500701      3.66112468298054     -0.02631984932813
  H   2.58647939225541      2.38488032847446     -0.00744784088619
  H   4.77417885719175     -1.27655279589385     -0.01577593232692
  H   6.89841077933232     -0.02510064351819     -0.03476084774390
  H   7.97342334104158      2.13049406614189      0.18176278244791
  H   7.10218013590995      3.58674066640220      0.16826991695422
