46
reopt_t-s1-wb2plyp_2s-p.xyz
  N     -7.412847    2.015091    0.063716
  C     -6.159059    1.456544    0.026416
  C     -6.013244    0.059147    0.003214
  C     -4.757047   -0.485541    0.001859
  C     -3.581032    0.282702    0.020452
  C     -3.727948    1.696534    0.043057
  N     -2.662675    2.527852    0.060700
  H     -1.734213    2.133340    0.066229
  H     -2.808212    3.519192    0.090987
  C     -5.018771    2.244698    0.044608
  H     -5.118336    3.329005    0.065053
  C     -2.298863   -0.403492    0.016103
  N     -1.146474    0.277297    0.016267
  C      0.001833   -0.357732    0.009349
  N      1.150725    0.275681    0.005565
  C      2.303130   -0.405314   -0.001778
  C      3.582651    0.282648   -0.013020
  C      3.727074    1.697441   -0.021796
  N      2.664987    2.533040   -0.013671
  H      2.815413    3.523817   -0.030358
  H      1.735638    2.143476   -0.002720
  C      5.016960    2.245154   -0.036993
  C      6.155847    1.457011   -0.047814
  N      7.405201    2.018423   -0.101614
  H      8.184605    1.440500    0.162937
  H      7.495028    2.990071    0.139545
  C      6.013440    0.059111   -0.037933
  C      4.757944   -0.485867   -0.020999
  H      4.644279   -1.564481   -0.014613
  H      6.893854   -0.578949   -0.050542
  H      5.117358    3.328998   -0.046299
  N      2.338692   -1.757976   -0.002286
  C      1.229284   -2.431655    0.000106
  N      0.001232   -1.763047    0.003677
  C     -1.227701   -2.430194    0.002230
  N     -2.335470   -1.755823    0.006383
  C     -1.206021   -3.833799   -0.002307
  C     -0.002140   -4.523088   -0.003863
  C      1.203834   -3.835615   -0.002854
  H      2.162618   -4.341025   -0.004741
  H     -0.003824   -5.609375   -0.005929
  H     -2.166695   -4.336251   -0.002467
  H     -4.643744   -1.563567   -0.015281
  H     -6.893287   -0.578826   -0.006364
  H     -7.499171    2.990994   -0.163595
  H     -8.185947    1.441198   -0.225142
