46
Coordinates from ORCA-job reopt_t-s0-wb2plyp_2s-p
  N   7.46693757131526     -2.49429328697367      0.04047565421633
  C   6.25729751643523     -1.85082890540427      0.00316262191848
  C   6.17906960709441     -0.46972367373693     -0.06008072177663
  C   4.95332009249494      0.22178433626880     -0.05496020018985
  N   4.97634808173494      1.56829294305640     -0.12845375964792
  H   5.86257774018353      2.04895215120435     -0.10695605351006
  H   4.08868195546822      2.06562183753114     -0.05975833869718
  C   3.73824371492721     -0.52974944393122      0.01051883754874
  C   2.41717501130374      0.08435279380361      0.01404263627833
  N   2.35314938749536      1.43499331484820      0.03441037033344
  C   1.21122282790057      2.07442813496380      0.04244597304930
  N   1.18520463625959      3.40966908173077      0.05948857145005
  C   0.00021868333723      3.98497317059751      0.06513603991126
  N   -1.18482445266458      3.40987488653988      0.05589389365181
  C   -1.21099057640621      2.07462037000081      0.03920139101937
  N   0.00007677670657      1.37701495152682      0.03304071607758
  C   -0.00000535154304     -0.00835703957234      0.00797110992998
  C   1.23768272655040     -0.65408101934700     -0.00526906829427
  H   1.22386002345821     -1.73885557569075     -0.03772521387858
  C   -1.23782496772426     -0.65387024833746     -0.00818685611169
  C   -2.41719032376422      0.08474519013852      0.00903362625158
  C   -3.73828550772997     -0.52934317986721      0.00753154036936
  C   -4.95327844577535      0.22158401250916     -0.06643239531073
  N   -4.97649549935837      1.56725195014853     -0.15435369349783
  H   -4.08914015506125      2.06554989144430     -0.08863992332245
  H   -1.22441178503391     -1.73863096740657     -0.04142135590463
  H   -5.86291784120636      2.04777708359018     -0.13741725782137
  C   -6.17892437270304     -0.47000565038734     -0.06607201620714
  C   -6.25722567629134     -1.85039316138343      0.01054867741047
  N   -7.46706283695083     -2.49298963538199      0.05365046295881
  H   -8.28518071189733     -1.98074492647960     -0.24668224508045
  H   -7.47893625151181     -3.48190690820307     -0.15450306445259
  C   -5.06048159659479     -2.59294471128185      0.09030183052398
  C   -3.86046443552795     -1.93069105165295      0.08507644888375
  H   -2.95818346252633     -2.53625216390687      0.15696449170110
  H   -5.09527795658091     -3.68101491775851      0.16435821979850
  H   -7.09931850959281      0.11645967069566     -0.12517845131228
  N   -2.35297437797590      1.43538619583734      0.02886807226887
  H   0.00028182380463      5.08103028721697      0.07898800861808
  C   3.86035439816968     -1.93177174158705      0.07495852838863
  C   5.06040447558732     -2.59394742471449      0.07527248275234
  H   5.09514280670279     -3.68266825902260      0.13864768447142
  H   2.95800436856953     -2.53817483963472      0.13892831542789
  H   7.09942556644941      0.11744256373839     -0.11272800825775
  H   8.28532457413013     -1.97912307689064     -0.25409723711938
  H   7.47869267510580     -3.48096799206325     -0.17798481492100
