42
reopt_t-t0-wb2plyp_2s-p.xyz
  N      4.953017   -1.550696   -0.021553
  C      4.987660   -0.251290    0.101853
  C      6.229431    0.453516    0.181932
  C      6.297078    1.818447    0.316723
  C      5.101071    2.533340    0.374866
  C      3.865302    1.899291    0.301251
  C      3.735456    0.507383    0.165984
  C      2.452383   -0.101616    0.102958
  N      2.320846   -1.490071   -0.014663
  C      1.180850   -2.157783   -0.063255
  N      1.190417   -3.460163   -0.152386
  C     -0.003938   -4.051131   -0.175366
  N     -1.166488   -3.488221   -0.128781
  C     -1.212542   -2.142534   -0.057149
  N     -2.337805   -1.525022   -0.030295
  C     -2.388440   -0.160217    0.048523
  C     -3.724893    0.466585    0.029596
  C     -3.857842    1.770309   -0.456481
  C     -5.062445    2.439120   -0.477882
  C     -6.191318    1.786201    0.003549
  C     -6.100457    0.496532    0.473805
  C     -4.882084   -0.200263    0.494121
  N     -4.849321   -1.467424    0.999424
  H     -4.070754   -2.042690    0.707204
  H     -5.735379   -1.926157    1.120708
  H     -6.989959   -0.010810    0.841597
  H     -7.157425    2.286305   -0.000897
  H     -5.126784    3.448375   -0.874533
  H     -2.978851    2.265357   -0.859514
  C     -1.247129    0.578404    0.134835
  C      0.025762   -0.042993    0.095283
  C      1.229129    0.597488    0.157013
  H      1.206258    1.674791    0.244518
  N      0.002340   -1.451638   -0.015447
  H     -1.273841    1.654958    0.249542
  H      0.013043   -5.139973   -0.239858
  H      2.978588    2.518739    0.355513
  H      5.124522    3.615132    0.481318
  H      7.254424    2.327245    0.377797
  H      7.137281   -0.144467    0.132686
  H      3.188380   -2.027152   -0.059715
  H      5.884690   -1.950750   -0.052197
