46
Coordinates from ORCA-job ./reopt_t-s0-wb2plyp_2s-p
  N   -7.31880325807655      2.12326293552733      0.08256083882881
  C   -6.08870112758295      1.52229541002529      0.03078766929738
  C   -5.99349178428945      0.11372545055501      0.03650362005518
  C   -4.75600243867491     -0.47363351753500      0.02395164639897
  C   -3.55580278574796      0.26328101390015      0.00721118385874
  C   -3.64902145687939      1.68599774956632      0.00001832415568
  N   -2.55972920423302      2.48266513475060     -0.02685237641571
  H   -1.64410190490942      2.03762071350979     -0.00930996185947
  H   -2.67362921839612      3.48356520233803      0.00794813064054
  C   -4.92459606149420      2.27598691459164      0.01174611726223
  H   -4.99142138185100      3.36697776798656      0.00740532435400
  C   -2.30349020157140     -0.46937458842918      0.00316773077055
  N   -1.14703706806425      0.22166265624504     -0.00098357612957
  C   0.00020237675369     -0.42777665770413     -0.00083128677082
  N   1.14751801529978      0.22148780407176     -0.00306873401426
  C   2.30385326643135     -0.46973695277059     -0.00373097803706
  C   3.55607483607728      0.26279687809990     -0.00871255290627
  C   3.64885453229445      1.68545610188209     -0.00739306293127
  N   2.55912749838862      2.48159438308340      0.01186300632072
  H   2.67251069219700      3.48259837974465     -0.02107178721292
  H   1.64368560788731      2.03598186806235     -0.00021430817923
  C   4.92422496373063      2.27577352512838     -0.01891823072987
  C   6.08848806704647      1.52224772715430     -0.03222509921243
  N   7.31847868636346      2.12317026816303     -0.08424868257295
  H   8.12303505130670      1.56751673456747      0.17121604973592
  H   7.37832317907640      3.10459581105150      0.14958092827197
  C   5.99373407920746      0.11364570582876     -0.03211170269360
  C   4.75640218924499     -0.47395633856731     -0.01972834424785
  H   4.66448789386970     -1.55934868359232     -0.01971017679902
  H   6.90075986821011     -0.49322693910278     -0.04749097627979
  H   4.99075961226379      3.36678563215201     -0.01950758248517
  N   2.36039553145202     -1.79658979240641     -0.00223623176604
  C   1.22682490309185     -2.48722223056684      0.00007570554323
  N   0.00013924939449     -1.82559810760095      0.00121639990890
  C   -1.22660262299388     -2.48708803214076      0.00379085511304
  N   -2.36011985835034     -1.79625051135458      0.00497304071853
  C   -1.20727485487334     -3.88290354881010      0.00433921199749
  C   0.00009824291687     -4.55895539754214      0.00313263279560
  C   1.20750366957895     -3.88302902843891      0.00116596215362
  H   2.17092997829395     -4.38754950970752      0.00014577811253
  H   0.00005233971286     -5.65096689489548      0.00367983826642
  H   -2.17062428386928     -4.38745775220929      0.00602526796280
  H   -4.66388196631589     -1.55904434287111      0.02805169617096
  H   -6.90028121337150     -0.49338905262419      0.05638087859899
  H   -7.37925401509076      3.10348437890167     -0.15615660384430
  H   -8.12369362345456      1.56625473198254     -0.16895458220523
