42
reopt_t-s1-wb2plyp_2s-p.xyz
  N      5.371031   -1.470899    0.065597
  C      5.331641   -0.122130    0.095363
  C      6.550657    0.581998    0.151017
  C      6.598005    1.951716    0.178250
  C      5.418606    2.695078    0.148712
  C      4.220370    2.026052    0.099386
  C      4.120445    0.623905    0.077607
  C      2.804184   -0.017343    0.041511
  N      2.730372   -1.347907   -0.045072
  C      1.589644   -1.994363   -0.088249
  N      1.565244   -3.307580   -0.136861
  C      0.386234   -3.906320   -0.146193
  N     -0.798272   -3.318196   -0.094896
  C     -0.833170   -2.005897   -0.060286
  N     -1.979980   -1.366853   -0.017218
  C     -2.054419   -0.035560    0.019263
  C     -3.369526    0.609001    0.008929
  C     -3.469520    1.973575   -0.304071
  C     -4.664103    2.653670   -0.313226
  C     -5.828701    1.958173    0.004858
  C     -5.776525    0.619409    0.304555
  C     -4.565312   -0.095554    0.307614
  N     -4.585407   -1.412405    0.623731
  H     -3.764661   -1.966507    0.430193
  H     -5.475081   -1.862859    0.737460
  H     -6.689710    0.079405    0.545869
  H     -6.788665    2.469970    0.007820
  H     -4.695893    3.708434   -0.570645
  H     -2.570455    2.517220   -0.577527
  C     -0.860580    0.721161    0.090565
  C      0.372622    0.094003    0.043950
  C      1.601625    0.727590    0.111246
  H      1.598764    1.802880    0.222381
  N      0.375008   -1.298257   -0.088424
  H     -0.875055    1.795760    0.217583
  H      0.390279   -4.994058   -0.189618
  H      3.315541    2.623028    0.069800
  H      5.441974    3.780766    0.162532
  H      7.562242    2.453824    0.219312
  H      7.471999    0.003464    0.170124
  H      4.509689   -1.990163   -0.014684
  H      6.260267   -1.934888    0.058383
