42
Coordinates from ORCA-job reopt_t-s0-wb2plyp_2s-p
  N   4.93410733273236     -1.32152863617114      0.44636421497843
  C   4.92347686865871      0.01455107717855      0.23243104502995
  C   6.14433829021297      0.72239870372521      0.29350551955518
  C   6.20841518783138      2.08160911607063      0.09563751941612
  C   5.04823686475937      2.81235261077631     -0.17861326636320
  C   3.84581417008827      2.14267510473969     -0.22784241692235
  C   3.73486598212665      0.75615463547863     -0.01815131916609
  C   2.40977169748794      0.12982986643630     -0.05240421957408
  N   2.35472488313751     -1.21087583864777     -0.17304732361072
  C   1.21077218942801     -1.85024921754855     -0.21847865703136
  N   1.18466190810374     -3.17996814101303     -0.31538149433609
  C   0.00062818565718     -3.75640844212709     -0.35330849374511
  N   -1.18376738564950     -3.18127605701341     -0.31066482559506
  C   -1.21105251175160     -1.85135797742904     -0.21564879694340
  N   -2.35538798157246     -1.21291799530941     -0.16904034796585
  C   -2.41048171365808      0.12825328088575     -0.05283937923685
  C   -3.73555774715347      0.75478341916921     -0.02209507195274
  C   -3.84694781638378      2.13800714552931     -0.25107245242387
  C   -5.04929296041299      2.80842648888356     -0.20609424103262
  C   -6.20806139375983      2.08170243988866      0.08384191327370
  C   -6.14309064886695      0.72530693455859      0.30111055280652
  C   -4.92266041069350      0.01669109688341      0.24429902929313
  N   -4.93096956646439     -1.31637150060146      0.47918602820978
  H   -4.09086571381526     -1.84049515934571      0.24193786367362
  H   -5.82210682927799     -1.78472511783487      0.55145678676609
  H   -7.05320924188476      0.16201490887697      0.51941434898770
  H   -7.17579542789148      2.58583103099827      0.12945586539591
  H   -5.09429712300685      3.88009289074018     -0.40119173023848
  H   -2.94894395352774      2.70183681676140     -0.50277736168106
  C   -1.23959716324253      0.86785709094633      0.03972799985438
  C   -0.00049024866900      0.22576323674666     -0.03073438386522
  C   1.23793080717739      0.86848832532235      0.04061500045389
  H   1.23557862472119      1.94410571280967      0.18857097162125
  N   -0.00030901525263     -1.15159748741657     -0.16510350263443
  H   -1.23874290701239      1.94370066414375      0.18716156360012
  H   0.00106732360372     -4.84955713835855     -0.42974642910700
  H   2.94731597062739      2.71056671179253     -0.46780340136495
  H   5.09231262247183      3.88671624826465     -0.35838125951550
  H   7.17629191114573      2.58514124884213      0.14463519282248
  H   7.05537909794142      0.15592132841532      0.49935487782727
  H   4.09040151087966     -1.84259253686634      0.21533234695603
  H   5.82542580799853     -1.79058178841916      0.51063324236637
