47
Coordinates from ORCA-job ./reopt_t-s0-wb2plyp_2s-p
  N   -7.19548323476779     -2.37434993106223     -0.05271491635148
  C   -5.98878503921338     -1.72251536531600     -0.06705691475560
  C   -5.94916040425460     -0.31327744270420     -0.00675072412542
  C   -4.73485156369838      0.32246440481873      0.01452204896746
  C   -3.50794113240337     -0.36635566563326     -0.01608275718441
  C   -3.54483736787808     -1.78980245255022     -0.07483956722732
  N   -2.42213036529151     -2.53791345420949     -0.11485306505111
  H   -1.52705383535913     -2.05176396484503     -0.08251420360748
  H   -2.49282015805054     -3.54294345409616     -0.14199263814335
  C   -4.79593295087948     -2.42949393086596     -0.09996239453140
  H   -4.81993609928645     -3.52141212282493     -0.14439194709450
  C   -2.28082416650817      0.40982460843163      0.00884271387204
  N   -1.10786339483309     -0.23015858192451      0.00823068937293
  C   0.02790180308020      0.46226202002598      0.02140471570049
  N   1.17658140791139     -0.16820427917636      0.00777743109334
  C   2.35392214348301      0.50133917684215      0.01787973362536
  C   3.58741530268953     -0.28369625093462     -0.03294070073174
  C   4.78899120161462      0.33509288603636     -0.41439770716059
  C   5.99618584527553     -0.31992455646979     -0.47028069179030
  C   6.05441192153888     -1.68265336911989     -0.12507354382028
  N   7.24226148538676     -2.36728516946873     -0.20827362201245
  H   8.09225533745347     -1.82001741887565     -0.20982113587564
  H   7.30712716716477     -3.24866296559043      0.28274004015885
  C   4.88246196636224     -2.32686335785707      0.24559035153853
  C   3.64366938600045     -1.66875697402410      0.29388117767095
  N   2.54664884223266     -2.36242416450959      0.69261403119529
  H   1.64604441672294     -1.92423427007435      0.50316386898001
  H   2.61669065294606     -3.36818352684988      0.74399520571463
  H   4.91434072394808     -3.38792597446036      0.50641770627227
  H   6.89802066221239      0.20117703942327     -0.79586142276466
  H   4.76562230996647      1.38300148635303     -0.71372539643992
  C   2.35866160987799      1.88179412123508      0.06999043469739
  C   1.14882534673067      2.59558468317335      0.07215587471100
  C   1.06655412334927      3.98832330189227      0.10924391846857
  C   -0.17240116713855      4.60730919794650      0.11562669187564
  C   -1.33798634556363      3.86861355133671      0.08675186184391
  C   -1.28919708753376      2.46903118439672      0.05287554757070
  N   -2.39148335084961      1.73908979389467      0.03026335488542
  N   -0.02944058053972      1.86341244032835      0.04412242380961
  H   -2.32780651333169      4.31908616170566      0.09154088042966
  H   -0.22828417669843      5.69754081112344      0.14291564726068
  H   1.99433785651024      4.55779070569170      0.13039385219529
  H   3.27647375930050      2.45933623226723      0.13504606595418
  H   -4.68502230850328      1.40968838335227      0.05765418056185
  H   -6.87927010527540      0.25699618308055      0.02631223153740
  H   -7.21118769095729     -3.34226659500305     -0.34359456731645
  H   -8.01638023294278     -1.83887213490979     -0.29973376397936
