46
Coordinates from ORCA-job reopt_t-t0-wb2plyp_2s-p
  N   -7.33262226695433      2.12495641912938      0.08542461398811
  C   -6.10021740934260      1.53648106545573      0.03558219614883
  C   -5.99112186246929      0.13125991009951      0.03234863100079
  C   -4.75108388195296     -0.44087461570888      0.01709664792828
  C   -3.55732460647182      0.30275014836637      0.00441898899867
  C   -3.66736743790653      1.72177485211439      0.00392743924949
  N   -2.59127643518244      2.53241454721893     -0.01447963482711
  H   -1.67182946154469      2.11359589352119     -0.00695948966612
  H   -2.71942807797344      3.52630693851359      0.01296044777145
  C   -4.94591993337664      2.29877084606460      0.01823343837062
  H   -5.02212804185888      3.38466322661656      0.02017946679936
  C   -2.29307328109665     -0.41262052467807     -0.00171321294109
  N   -1.14412629099409      0.28051043582719     -0.00631939658877
  C   -0.00044965017757     -0.37260155413793     -0.00706823184480
  N   1.14275715685024      0.28144980118718     -0.00867939563016
  C   2.29210529825021     -0.41093337174429     -0.00708083158201
  C   3.55631301068609      0.30423472270608     -0.00981860140587
  C   3.66725453868497      1.72311818774214     -0.01198598842087
  N   2.59154889631999      2.53443055983206     -0.00062126544670
  H   2.72028928726019      3.52813805680774     -0.03229370578937
  H   1.67185975556479      2.11615889735784     -0.01126549206952
  C   4.94630222649622      2.29911817419333     -0.01955734231895
  C   6.09999441541382      1.53574506546083     -0.02608795663122
  N   7.33337135212076      2.12250108387244     -0.06630601808436
  H   8.13318461645438      1.56336295409407      0.17382843744053
  H   7.40649506667307      3.10267507635308      0.14335511137377
  C   5.98988791288754      0.13070780055653     -0.02116551550622
  C   4.74946286332214     -0.44037700694080     -0.01368499290504
  H   4.65524171696216     -1.52068181753573     -0.01085781265866
  H   6.88572026086373     -0.48498826078867     -0.02977001649761
  H   5.02335381445227      3.38496019910289     -0.02280573669420
  N   2.34270684197642     -1.74239378341150     -0.00521904741080
  C   1.22720654374522     -2.43349491404767     -0.00466288561042
  N   0.00007126131029     -1.73769085087440     -0.00499971395094
  C   -1.22653944743553     -2.43449878839843     -0.00332529721317
  N   -2.34270526947785     -1.74419298862198     -0.00159428386924
  C   -1.19550773744362     -3.82996892453947     -0.00304841879272
  C   0.00134247843344     -4.55711733410736     -0.00339118150480
  C   1.19753548786587     -3.82889870500807     -0.00383785766166
  H   2.16843562864959     -4.31387356399190     -0.00361819838411
  H   0.00191088364876     -5.63970368620671     -0.00256173094419
  H   -2.16595167076987     -4.31588385500378     -0.00198152392632
  H   -4.65772830141433     -1.52131143936439      0.01620953811261
  H   -6.88723166581668     -0.48385993996768      0.04901789662890
  H   -7.40650513369531      3.10468319872360     -0.12595855772705
  H   -8.13529339785337      1.56614122379146     -0.14582010100802
