38
Coordinates from ORCA-job reopt_t-t0-wb2plyp_2s-p
  C   -5.93813428144525      2.15160709326802     -0.00029120450290
  C   -5.95318175810558      0.76409426000121     -0.00157091051849
  C   -4.76406818922586      0.05705908136237     -0.00174190809118
  C   -3.54529118940768      0.73222606740706     -0.00079477535929
  C   -2.27521906813265     -0.01406343409170     -0.00073254903165
  N   -1.14467223146424      0.68884979872197     -0.00165666439478
  C   -0.00031112196150      0.04770872033312     -0.00222003774357
  N   1.14391940473551      0.68927289057531     -0.00266784754557
  C   2.27473247145319     -0.01325890230917     -0.00318575760067
  C   3.54483903822557      0.73282264849140     -0.00211519688083
  C   3.53665282641963      2.12591939198960      0.00151342943398
  C   4.72827148943367      2.82907269990345      0.00367134516191
  C   5.93811934643508      2.15068442639372      0.00184640198788
  C   5.95265405898234      0.76330141251298     -0.00194870106005
  C   4.76319113732487      0.05700906505031     -0.00377867996812
  H   4.76199196386392     -1.02808916721633     -0.00648412093295
  H   6.89920785536327      0.22783109401673     -0.00329533679519
  H   6.87364006405182      2.70560267785308      0.00346204817307
  H   4.71342423555289      3.91627664448521      0.00684462532119
  H   2.58232975473697      2.64237754248498      0.00302029273147
  N   2.33848926967249     -1.34021462543338     -0.00248599745647
  C   1.22411046878549     -2.02887675707062     -0.00141687948330
  N   -0.00001721161144     -1.33887815269261     -0.00185025486019
  C   -1.22386748318666     -2.02938974754017     -0.00038531529585
  N   -2.33856310424066     -1.34107631825157     -0.00013190900327
  C   -1.19702586184719     -3.42625841901877      0.00193905238872
  C   0.00068477111349     -4.14172638237966      0.00304688624752
  C   1.19804316067978     -3.42570201200361      0.00107588057979
  H   2.16618702172365     -3.91570387359562      0.00201603998098
  H   0.00096081364175     -5.22535986514059      0.00586836754108
  H   -2.16486282238989     -3.91693962922651      0.00405019356278
  C   -3.53657343537964      2.12537841179181      0.00056382092644
  C   -4.72785838108684      2.82920611121643      0.00088647154108
  H   -4.71246339596265      3.91639636600697      0.00207569535524
  H   -2.58193764485314      2.64134561561045      0.00147465229016
  H   -4.76372870606995     -1.02807394183469     -0.00274171290487
  H   -6.89998541374163      0.22903662036679     -0.00236226390749
  H   -6.87349534636661      2.70684237466350      0.00012386333153
