38
Coordinates from ORCA-job reopt_t-t0-wb2plyp_2s-p
  C   3.11256446884878      6.29973904259946     -0.03280471275163
  C   1.74324895173539      6.12716651042052      0.11175710831432
  C   1.19630869855164      4.85788750457443      0.13670270715274
  C   2.00841499615618      3.72733957285677      0.01758025513902
  C   3.38500984563551      3.91447387580939     -0.12724982198124
  C   3.92982086553494      5.18628739103187     -0.15222574735681
  C   1.38799197866773      2.39556639898654      0.05214363127599
  C   2.12907503275840      1.21045293896618     -0.07509850482908
  C   1.49717535209115     -0.02143364636542     -0.02580888023953
  C   2.12011410819190     -1.25434120180580     -0.13157454917791
  C   1.37053017879788     -2.43862864967803     -0.05777332035561
  N   0.04396752636319     -2.37544877504429      0.10866443334300
  C   -0.58460900689888     -1.23455808998844      0.21106164028338
  N   -1.89351492844402     -1.19937418474253      0.37341803433171
  C   -2.46698336465712     -0.01834004969470      0.46911989991897
  N   -1.88560844757100      1.16180534034556      0.42203469443089
  C   -0.57625230275666      1.19489502346933      0.26294909647578
  N   0.06047023043425      2.33473760701102      0.21155825745014
  N   0.10378620205581     -0.02040073014550      0.15255358561129
  C   1.98003475733472     -3.77210647154498     -0.15776540876766
  C   1.15884327011407     -4.90035145489219     -0.08988651171255
  C   1.69478035131854     -6.17132841210019     -0.17978810670610
  C   3.06191460782661     -6.34788086478288     -0.33911661778402
  C   3.88820813409090     -5.23685211125035     -0.40721649582948
  C   3.35440091508895     -3.96333343342448     -0.31759535558001
  H   3.54156857652124      7.29872495281761     -0.05205574145341
  H   1.09196512106351      6.99279813744349      0.20673678197541
  H   0.12694408272106      4.71506804972415      0.24937829630056
  H   4.05597892007559      3.06557253693477     -0.22058006292164
  H   5.00456556256354      5.30731596022191     -0.26498268581835
  H   3.20354836864710      1.22177752956029     -0.21383856931233
  H   3.19442412262079     -1.26694348351646     -0.27152475301584
  H   -3.54856231461390     -0.01747527197909      0.60321771208484
  H   0.09122735608887     -4.75438546124733      0.03456091421101
  H   1.03654506047256     -7.03512202778122     -0.12443235568023
  H   3.48220156146113     -7.34824361863856     -0.40986890199833
  H   4.96141149703554     -5.36136783002235     -0.53039061982663
  H   4.03225966407362     -3.11663260412849     -0.37252932520065
