38
Coordinates from ORCA-job reopt_t-s0-wb2plyp_2s-p
  C   3.09281705772038      6.29811537644202     -0.06756304489662
  C   1.72024859780657      6.11964708076498      0.06238987583688
  C   1.18368512103243      4.84091176187339      0.10337022961916
  C   2.01373050722273      3.72126442743200      0.01271608081589
  C   3.39193708955287      3.91007230255601     -0.11555569318174
  C   3.92748355851235      5.18924473034887     -0.15580346460429
  C   1.40201728970694      2.37513612400060      0.05851282096967
  C   2.14431066498322      1.21706199554907     -0.08402416916358
  C   1.49807357785177     -0.02201704590114     -0.01964773644456
  C   2.13467236252456     -1.26198210306111     -0.14027803137298
  C   1.38312692663614     -2.41933581858828     -0.05032480324045
  N   0.05974513671324     -2.38233710930301      0.13417705767243
  C   -0.57119147870902     -1.23643694120732      0.24530556342304
  N   -1.88981574066928     -1.20321517456286      0.42687362201633
  C   -2.45616017522788     -0.01905157756267      0.53443647178353
  N   -1.88004260720085      1.16424578041906      0.48377109282984
  C   -0.56127524351326      1.19525016666007      0.30289275497354
  N   0.07874500750678      2.33992868640653      0.24402414979743
  N   0.13199293528099     -0.02112088025763      0.17621033712918
  C   1.98450924702930     -3.76647172884830     -0.15775107457768
  C   1.14199769358238     -4.88026830530140     -0.17571612346213
  C   1.66909347860687     -6.15930460317057     -0.28087927244198
  C   3.04443633701627     -6.34408720735657     -0.36500120025556
  C   3.89149584116148     -5.24132568922767     -0.34164441341258
  C   3.36534825157467     -3.96170127002331     -0.23902987065834
  H   3.51503606769553      7.30444986620541     -0.09963174870474
  H   1.05965493349154      6.98554056630186      0.13354250777098
  H   0.11138427696113      4.67890138817658      0.20776887743174
  H   4.06714024966400      3.05677163599716     -0.18007783636228
  H   5.00628550830416      5.32130325659292     -0.25525806183452
  H   3.21858440774316      1.22090270070560     -0.24642912109134
  H   3.20836685271541     -1.26735137130680     -0.30663093984412
  H   -3.54148657761680     -0.01821085554295      0.68604196561044
  H   0.06768204723851     -4.71398845167945     -0.10360196867760
  H   0.99884622280391     -7.02052370378264     -0.29587954630604
  H   3.45908713023323     -7.35073001788357     -0.44697848989802
  H   4.97256982272410     -5.37866519011583     -0.40143235875095
  H   4.04963762134023     -3.11356280174906     -0.21356443849804
