42
reopt_t-s1-wb2plyp_2s-p.xyz
  N      0.013323    5.464302    0.325200
  C      1.352565    5.281501    0.258610
  C      2.191126    6.410691    0.260605
  C      3.558111    6.295965    0.197590
  C      4.159952    5.040587    0.128564
  C      3.358232    3.924762    0.125098
  C      1.957406    3.999952    0.188348
  C      1.196022    2.754595    0.178566
  N      1.899099    1.600206    0.112087
  C      1.271517    0.465100    0.099595
  C      1.943392   -0.766892    0.035700
  C      1.234597   -1.959229    0.025654
  C     -0.151750   -1.959554    0.078804
  C     -0.865773   -0.751943    0.144193
  N     -2.161384   -0.712374    0.196850
  C     -2.792990    0.482451    0.262846
  N     -2.127124    1.638180    0.276634
  C     -0.817097    1.651874    0.223267
  N     -0.136310    2.772420    0.233885
  N     -0.125018    0.433389    0.151097
  C     -4.251431    0.463976    0.319317
  C     -5.040147    1.639546    0.408233
  N     -4.508126    2.882939    0.449405
  C     -6.438495    1.497186    0.456314
  C     -7.040987    0.263685    0.418665
  C     -6.273071   -0.896553    0.331252
  C     -4.904955   -0.778571    0.284379
  H     -0.355285    6.396204    0.357066
  H     -0.595789    4.662456    0.310519
  H      1.728045    7.393953    0.315315
  H      4.169519    7.196000    0.201828
  H      5.240796    4.943609    0.078736
  H      3.801908    2.936947    0.072146
  H      3.026044   -0.731334   -0.004139
  H      1.771191   -2.902610   -0.024255
  H     -0.736791   -2.872178    0.073815
  H     -3.507364    2.991952    0.417660
  H     -5.115699    3.677028    0.523714
  H     -7.044483    2.398404    0.524782
  H     -8.126508    0.200176    0.457886
  H     -6.744055   -1.875150    0.301140
  H     -4.284099   -1.664628    0.216917
