42
Coordinates from ORCA-job reopt_t-s1-wb2plyp_2s-p
  N   0.10180270764124      5.08292697470800      0.25827823590867
  C   1.44201441008796      4.89591402864383      0.22229263954862
  C   2.28301400925685      6.02315413439603      0.22607849004771
  C   3.65041960380040      5.90489936216579      0.17987235103574
  C   4.24996192418431      4.64766621646532      0.12816375366750
  C   3.44581055888892      3.53366112268492      0.12460277711967
  C   2.04450102567809      3.61239414789994      0.17102221381111
  C   1.28133955297332      2.36782647349264      0.16531115361427
  N   1.98454806730243      1.21314311449826      0.10695943973872
  C   1.35668975681170      0.07823348766408      0.09282178313552
  C   2.02888551874668     -1.15390579704439      0.03576109716918
  C   1.32015576325242     -2.34621110790977      0.02235718297837
  C   -0.06646452181793     -2.34620002628472      0.06733967460089
  C   -0.78057573024707     -1.13838991136535      0.12692723057074
  N   -2.07614674945732     -1.09901005058110      0.17680593638684
  C   -2.70819671686706      0.09552724577713      0.24140766617585
  N   -2.04268085727927      1.25146099149813      0.25982878609475
  C   -0.73252748560895      1.26549029808428      0.20792525950381
  N   -0.05113738535397      2.38602433821235      0.22103976506157
  N   -0.04019382411580      0.04707759993185      0.13311890610153
  C   -4.16647029858901      0.07503584496052      0.29852231845366
  C   -4.95794077344587      1.24910859009055      0.38340842175108
  N   -4.42970385247830      2.49472973984770      0.40625248772876
  C   -6.35545363219060      1.10315714929393      0.44333390088295
  C   -6.95478040433213     -0.13215789076661      0.41786331947222
  C   -6.18434682280362     -1.29074123388932      0.33136943492140
  C   -4.81698525595400     -1.16937996227526      0.27449802178015
  H   -0.26128278089424      6.01300688023180      0.35169733083520
  H   -0.50578450024199      4.28120630934577      0.30764376390290
  H   1.82143265493326      7.00786786402521      0.26495120480590
  H   4.26392547824618      6.80348224944969      0.18422337784417
  H   5.33109705468932      4.54782875787205      0.09183690655910
  H   3.88792776196371      2.54451653822364      0.08520052123199
  H   3.11179883929144     -1.11828732301425      0.00348682493879
  H   1.85692236058834     -3.28968649874152     -0.02276613810752
  H   -0.65158707798230     -3.25875906549132      0.06174801693683
  H   -3.42885350590879      2.60547012348533      0.38476405289343
  H   -5.03749929286818      3.28531531967293      0.51086440532729
  H   -6.96349154605102      2.00312883630382      0.50943149571100
  H   -8.03975261316046     -0.19846463353531      0.46557429494445
  H   -6.65277682837975     -2.27080543663575      0.31047359867352
  H   -4.19423459230882     -2.05426480139047      0.20993809624188
