18
Coordinates from ORCA-job ./opt_b3lyp_cdz
  C   -0.93670001888621     -2.42610283589971      0.00002136095506
  C   -1.62493309603445     -1.17474489486897      0.00000452233753
  C   -0.81299579684734     -0.06612950296467     -0.00001139733379
  C   -1.61382807293545      1.08691959136274     -0.00001473286749
  N   -2.92780910843743      0.64832572445918      0.00001910268134
  N   -2.93213515111544     -0.68095818057934     -0.00000032206968
  N   -1.05021654867494      2.30635867154754     -0.00002150261531
  N   0.28121623617922      2.36941200088508     -0.00002551560934
  C   1.06241267811282      1.24931260446377     -0.00001868320934
  N   0.50852055419836     -0.01584974734771     -0.00001035234491
  C   1.23807599853298     -1.20357378126637      0.00000330691269
  N   2.57252752719064     -1.13648481768753      0.00000253801239
  N   3.16762548398871      0.06441385942893     -0.00000945809670
  C   2.47525738085876      1.20597409875036     -0.00001889543477
  H   3.04967177664130      2.13380286613148     -0.00002752112814
  C   0.45407981261425     -2.41280597182153      0.00001788684932
  H   1.02569580845852     -3.34083471464123      0.00002614582783
  H   -1.46935438044431     -3.37967686915201      0.00003215973332
