20
Coordinates from ORCA-job ./opt_b3lyp_cdz
  C   -0.92756291268927     -2.40853668493113      0.00000438870097
  C   -1.63028196271489     -1.18342621127758     -0.00000475730435
  C   -0.83864980424162     -0.02728189792049      0.00000154246182
  C   -1.66005828636991      1.12573566654420     -0.00000910640334
  C   -2.97585124752357      0.55209963355548     -0.00003001762565
  N   -2.95401999013090     -0.79705292256484     -0.00001650878336
  H   -3.92290983902787      1.09189826459544     -0.00004350648363
  N   -1.10578498168373      2.36172824299367     -0.00000332696480
  C   0.22319116122606      2.40663154735775      0.00001076589279
  C   1.10137153480140      1.26471457223069      0.00002033485569
  C   2.50369634388678      1.20042498277250      0.00003513512764
  N   3.19088229733387      0.04757222695843      0.00004405249583
  N   2.57159768358006     -1.12495317113898      0.00003914240467
  C   1.22403595738425     -1.17310729400902      0.00002489736464
  N   0.49235193062317      0.02109930566065      0.00001558857119
  C   0.46903007145827     -2.38146309862119      0.00001895145825
  H   1.05408555334418     -3.30065473920334      0.00002741277153
  H   3.10134055930399      2.11411666185471      0.00004059764995
  H   0.69248973444159      3.39437267839410      0.00001430072561
  H   -1.45366840780185     -3.36602771855106      0.00000147648457
