19
Coordinates from ORCA-job ./opt_b3lyp_cdz
  C   -0.86898763724845     -2.47042813480321      0.00002070308410
  C   -1.61103816260361     -1.24652226983108      0.00000156735091
  C   -0.83827826153120     -0.10159399940746     -0.00000382979666
  C   -1.65032136827960      1.06814114418819     -0.00001497813034
  N   -2.97147540855326      0.67104585650693     -0.00000759048250
  C   -2.94876482807220     -0.66839536314727     -0.00001756249357
  H   -3.88685845457085     -1.22654593287680     -0.00001450185279
  N   -1.10284428434573      2.28027728968674     -0.00002057944759
  N   0.24325773301816      2.35857724072973     -0.00001633464471
  C   1.02042835001831      1.25903870570168     -0.00000491209802
  C   2.44442059923534      1.24122361692410      0.00000079023136
  N   3.16224413114082      0.12865767858161      0.00001275370693
  N   2.58638045605735     -1.09451311629920      0.00002064537343
  C   1.26161378816169     -1.18584576269901      0.00001568238418
  N   0.48745924393960     -0.02081799764793      0.00000247634821
  C   0.51508190816914     -2.42083762740319      0.00002503994970
  H   1.11540720237767     -3.33048878873585      0.00003491252673
  H   2.98896146756664      2.18753083309029     -0.00000480034550
  H   -1.36554669047979     -3.44374808415829      0.00002533653613
