19
Coordinates from ORCA-job ./opt_b3lyp_cdz
  C   -0.98321868324710     -2.39333097275072     -0.00003811465370
  C   -1.65283519561500     -1.13532332635725     -0.00002216258837
  C   -0.83393321941695     -0.01632661264688     -0.00000086709806
  C   -1.65344694364515      1.12184506680232      0.00001852728227
  N   -2.95634576620659      0.66932621568855      0.00000498544001
  N   -2.95346775213488     -0.66623374887965     -0.00001530135990
  C   -0.95459256935530      2.34591133324898      0.00004917449878
  N   0.38876470402122      2.39032003086576      0.00005710322363
  C   1.11487281227037      1.25290768565703      0.00003854499748
  C   2.52387600165655      1.15091848825266      0.00004630114047
  N   3.17920243490228     -0.01168832751050      0.00002934733848
  N   2.53675017865316     -1.18345511742251      0.00000452546821
  C   1.19962987663891     -1.19966305224291     -0.00000539252407
  N   0.49877233250119      0.00797439900180      0.00000945524047
  C   0.40462219631422     -2.39852680754837     -0.00003002441168
  H   0.96914786349306     -3.33076638147827     -0.00004095996825
  H   3.12878195529775      2.05925621686008      0.00006752414420
  H   -1.46588235784463      3.31401216287820      0.00006658438588
  H   -1.53365826528312     -3.33671452381832     -0.00005475535585
