20
Coordinates from ORCA-job ./opt_b3lyp_cdz
  C   0.95984685662106      2.41795672444693      0.00002616699682
  C   1.66315179855845      1.19020317698797      0.00000762422438
  C   0.86846702939735      0.02816491508441      0.00002525450410
  C   1.69283168995504     -1.11981519753984      0.00005277853700
  N   3.00847193810503     -0.71074579767527      0.00008578006130
  C   2.99184327743525      0.63296937355804     -0.00004832203139
  H   3.92834969384265      1.19260167606846     -0.00006744612981
  C   1.03861596196832     -2.36154257369813      0.00007463307535
  C   -0.36478827407367     -2.38756335420749      0.00007284230824
  C   -1.14315063557564     -1.20927281418427      0.00004982130475
  N   -2.50185257352538     -1.18765675222656      0.00004851874334
  N   -3.14651846811280     -0.04427226684078      0.00003082547221
  N   -2.52894875381311      1.14236534763685      0.00001752024155
  C   -1.18834312111482      1.19743290015931      0.00001709241176
  N   -0.46956054045098      0.00665150364123      0.00003002821939
  C   -0.43281816579866      2.40725358949909      0.00001695286435
  H   -1.01267228782337      3.32964371689648      0.00000256423188
  H   -0.91685160961643     -3.32686754737923      0.00009819691659
  H   1.60254542022540     -3.29716738196407      0.00010765555349
  H   1.48381605279630      3.37735078913689      0.00000205699471
