19
Coordinates from ORCA-job ./opt_b3lyp_cdz
  C   -1.00123326224049     -2.38776836494034     -0.00006376801625
  C   -1.67302647076706     -1.15507433507360     -0.00010563736881
  C   -0.85048857729961     -0.01380330359160     -0.00004803518592
  C   -1.62470438194333      1.15604261427177     -0.00008533661974
  C   -2.96407486082819      0.61733324999466     -0.00012763861665
  N   -2.98840520650775     -0.72823167049781     -0.00020256205202
  H   -3.89380536257599      1.18729562073702     -0.00017233442431
  N   -1.02363701794261      2.37408828693856     -0.00004501861716
  C   0.30433206130002      2.37648943122380      0.00004054949980
  C   1.14582054415702      1.19930589304756      0.00009388733393
  N   2.48008063623401      1.20004129661290      0.00017952740225
  N   3.13936039062917      0.02381140720925      0.00021021619159
  N   2.53608325402810     -1.13925924762171      0.00016702177386
  C   1.17582063037698     -1.21243585297518      0.00008213087533
  N   0.47866256638083     -0.01300949539627      0.00004008708534
  C   0.40892775263650     -2.39709362264630      0.00002801258487
  H   0.96565029580980     -3.33375974826148      0.00005634225174
  H   0.82362197706643      3.33772367238499      0.00008364643854
  H   -1.54699164801383     -3.33429429581621     -0.00010802153638
