21
Coordinates from ORCA-job ./opt_b3lyp_cdz
  C   -3.07631444505749      0.00304151480134      0.00001542321707
  N   -2.48763517204950      1.20508529958890      0.00002547846346
  C   -1.14903026934027      1.22278718379569      0.00002700890420
  N   -0.46996884256109     -0.01897275258163      0.00001824573766
  C   0.87585829951588     -0.01714295136623      0.00001998220215
  C   1.64236609787255      1.17551742101738      0.00002997987795
  C   3.01481722126575      0.72800558535994      0.00002528845060
  C   3.03882149718898     -0.66320003183752      0.00001636670536
  C   1.68467115811795     -1.17148698897101      0.00001093154229
  C   1.00372751200200     -2.40485738840948     -0.00000059926531
  C   -0.39070140908665     -2.42161084550493     -0.00000207733144
  C   -1.16909713564443     -1.23440955630159      0.00000724849972
  N   -2.51075386724693     -1.20829124666794      0.00000619169514
  H   -0.95023363220749     -3.35641586754809     -0.00001054189549
  H   1.54804450966755     -3.35292910377554     -0.00000822341182
  H   3.93831426341261     -1.27779946225680      0.00001244859164
  H   3.89014257701720      1.37589483596457      0.00003009045451
  C   0.88967312686485      2.35454050682199      0.00003843395604
  N   -0.45352196017961      2.37104597409170      0.00003692137031
  H   1.36710555798869      3.34130918801702      0.00004531897404
  H   -4.17169320044058      0.01440924876221      0.00001458256190
