15
Coordinates from ORCA-job ./opt_b3lyp_cdz
  C   -2.23728883366981      0.56909928459367     -0.00546286823213
  N   -3.44949164980179      0.09536145062510      0.07583038067836
  N   -3.67410015399858     -1.25763809991606      0.13408224174861
  C   -2.64382519838659     -2.06152136827332      0.10634643573584
  N   -2.84138300542274     -3.44311249609285      0.16419624979061
  N   -1.84999788131884     -4.24960943715530      0.13865200428146
  N   -0.54161704189813     -3.83146870403846      0.05425372007481
  C   -0.30988531946457     -2.53708143131571     -0.00250114986532
  C   1.00136867988783     -1.94384518364509     -0.09299809017065
  N   1.21481425928356     -0.65438264906738     -0.14865912560765
  N   0.17343179286790      0.22741020171670     -0.12313878716324
  C   -1.04983640464260     -0.25211012297206     -0.04111558398479
  N   -1.33071530452493     -1.60883737178649      0.02041939575585
  H   -2.11094824976110      1.65369767810784     -0.04925745879069
  H   1.86727431085041     -2.60944175078057     -0.11647736425107
