19
Coordinates from ORCA-job ./opt_b3lyp_cdz
  C   -0.97814286802045     -2.42192816795614     -0.00001919022319
  C   -1.67529646457485     -1.18622516535235      0.00001585297027
  C   -0.86872056777045     -0.04268965655365      0.00002798382702
  C   -1.65958178260840      1.12415001102850      0.00005576470549
  N   -2.98810826496139      0.74501778525176      0.00004927309004
  C   -2.99799536469358     -0.59612672376465      0.00005370019175
  H   -3.94613353407356     -1.13593411935242      0.00005370366746
  C   -0.93572460437571      2.32345924647927      0.00007410481087
  N   0.41442499063570      2.34769596695596      0.00006059447321
  C   1.11505465392289      1.20944703692603      0.00003261580118
  N   2.47152671409766      1.19109508481652      0.00002029070254
  N   3.12007502156973      0.04431511262759     -0.00000641035208
  N   2.51947436236555     -1.14881284180436     -0.00002256279854
  C   1.17992678968082     -1.21516708843318     -0.00001191226668
  N   0.46628883823552     -0.02547816803088      0.00001574297621
  C   0.41491691001028     -2.42113789416730     -0.00002941032895
  H   0.98585581721912     -3.34918034925024     -0.00004994211320
  H   -1.43057110803551      3.30011871115065      0.00009015403061
  H   -1.50732550062337     -3.37829112117112     -0.00002846566399
