18
Coordinates from ORCA-job ./opt_b3lyp_cdz
  C   0.92981299236788      2.45533992025037      0.00022695656953
  C   1.64764370597754      1.22617024941272      0.00012202040913
  C   0.84953771483082      0.09366362244353      0.00003765005109
  C   1.62392097224630     -1.09039005578119      0.00002586965459
  N   2.95899379207121     -0.72407128606881      0.00016383738124
  C   2.97472926632594      0.61237854969787      0.00006428419546
  H   3.92684795133003      1.14583071676671      0.00014045000588
  N   1.03567900556544     -2.28526179068754     -0.00002474265856
  N   -0.31053507983204     -2.32776033464905     -0.00007404656878
  C   -1.05913251443421     -1.20748147109431     -0.00005202188491
  N   -2.41900544366900     -1.24519146425396     -0.00009612403510
  N   -3.10515551899485     -0.12523642349502     -0.00005984374866
  N   -2.55175433549425      1.10150019314494      0.00002697569284
  C   -1.21966489700510      1.21789658413782      0.00006652368202
  N   -0.47363266403464      0.04931939066043      0.00001463442754
  C   -0.46473676461954      2.43493325185840      0.00017489211918
  H   -1.04323877073207      3.35847786015882      0.00021185645677
  H   1.44195985790056      3.42080176509827      0.00028716435075
