18
Coordinates from ORCA-job ./opt_b3lyp_cdz
  C   -0.96995120939632     -2.40555766944310      0.00004865776965
  C   -1.64707602700061     -1.16271141230593      0.00001902722161
  C   -0.82545921580746     -0.04096547264482      0.00000538030067
  C   -1.62850866921210      1.10043270937588     -0.00000934327994
  N   -2.93459531922377      0.65785157713884      0.00005340671584
  N   -2.94746477540242     -0.67890774252262     -0.00003383396591
  N   -1.06697981563596      2.33362686148278     -0.00002793419474
  C   0.26425002857757      2.36225094963636     -0.00002709662694
  C   1.13236659237090      1.20636296909223     -0.00000740777783
  N   2.47329000319566      1.22183516627191     -0.00000754960456
  N   3.14293449185534      0.06635223882990      0.00000673161369
  N   2.55352891427055     -1.12069993214734      0.00002152778750
  C   1.20581342752447     -1.20880783051165      0.00002300133841
  N   0.49775854432814     -0.01896914632319      0.00000725099742
  C   0.43287597776884     -2.40558903807229      0.00004143412364
  H   0.99514397558798     -3.33912574862878      0.00004526633328
  H   0.76032294212570      3.33582231826661     -0.00003375093352
  H   -1.50815108632652     -3.35653621039481      0.00004755608176
