15
Coordinates from ORCA-job ./opt_b3lyp_cdz
  C   -2.39724766299186      0.57128404383310      0.02495622215803
  N   -3.53978299112535     -0.10553502738447      0.03631440546578
  N   -3.56023017735289     -1.43584964890968      0.04180385832078
  C   -2.39547385318395     -2.10915625724064      0.03567835104265
  N   -2.40148247865623     -3.46344154429202      0.04094340219514
  N   -1.25800814543482     -4.11929953253103      0.03521777494278
  N   -0.07707245345772     -3.53372048629012      0.02436719423149
  C   -0.00131671990003     -2.18153806496329      0.01830044694722
  N   1.20190963443392     -1.57980755126593      0.00691592318099
  N   1.26177070507266     -0.25065338561023      0.00111576491482
  C   0.16217688679378      0.49391834039047      0.00630312057188
  C   -1.13561174576413     -0.06566949997571      0.01814524629747
  N   -1.17705666466374     -1.43817870445543      0.02397441521241
  H   -2.46570735112199      1.66075755559634      0.02102991983228
  H   0.29616301735233      1.57727976309866      0.00097395468628
