20
Coordinates from ORCA-job ./opt_b3lyp_cdz
  C   -3.10029420516981     -0.02220433555900     -0.00005147695117
  N   -2.49617600264871     -1.23084675561098     -0.00004697683254
  C   -1.16448174888120     -1.21066645617287     -0.00004361362776
  N   -0.50450915317170      0.01604713458211     -0.00004392833100
  C   0.83228744842179      0.01386003954579     -0.00004009318389
  C   1.60728874259484     -1.15682591925878     -0.00003879178840
  C   2.95232567401527     -0.62362867126292     -0.00004469019490
  N   2.98092042165629      0.71649352317568     -0.00004574430709
  C   1.66119327900354      1.14647305234477     -0.00004580371537
  C   1.00294826404657      2.38481167391635     -0.00005378249359
  C   -0.40448994151887      2.40711245530357     -0.00005545633511
  C   -1.19518102859502      1.23455590956929     -0.00005123486100
  N   -2.54538474240765      1.18776696041847     -0.00005404244574
  H   -0.95053870049097      3.34992188055166     -0.00006095236347
  H   1.55875075082421      3.32564931160254     -0.00005918984433
  H   3.87804328209624     -1.20040689830446     -0.00004486040719
  N   1.01485427134845     -2.37489679245080     -0.00003875961261
  C   -0.31399609353548     -2.37889328309134     -0.00004021796277
  H   -0.83060000635075     -3.34169115534905     -0.00004040321152
  H   -4.19485512513709     -0.04581557575003     -0.00005262203054
