20
Coordinates from ORCA-job ./opt_b3lyp_cdz
  C   -2.94406734539977     -0.74527511217629      0.00005678843596
  C   -1.58657839215948     -1.22580219719517      0.00005268281564
  C   -0.85871743146767     -0.02671157700224      0.00003630804642
  C   -1.74268281944467      1.07560477320404      0.00003398831251
  N   -3.03427575221673      0.59635636831770      0.00004893468355
  C   -1.15034441650067      2.34867800906807      0.00002044899261
  C   0.25003503999404      2.43787455098340      0.00001070642280
  C   1.08464038618953      1.29603536022553      0.00001499282642
  C   2.50226409064715      1.20954740720118      0.00000748977533
  N   3.17325068247682      0.07074964390599      0.00001387370464
  N   2.53958722591398     -1.12079074947370      0.00002925212481
  C   1.21218455649702     -1.15746767956153      0.00003701506579
  N   0.54754344732440     -2.34844848707470      0.00005423502920
  C   -0.77839650347317     -2.39161572384974      0.00006279853941
  H   -1.21556240944954     -3.39723184978498      0.00007579284294
  N   0.47658299494498      0.04955898202337      0.00002873543894
  H   3.10166600217527      2.12366334043303     -0.00000438079678
  H   0.73819486267335      3.41308026173592      0.00000004154440
  H   -1.75749284209385      3.25677363635965      0.00001817473964
  H   -3.84916622073099     -1.35421589343952      0.00006838165577
