21
Coordinates from ORCA-job ./opt_b3lyp_cdz
  C   3.10802798301183      0.04227953182963     -0.00004221592697
  N   2.54420179356169     -1.17875834472384     -0.00004525758297
  C   1.20776322315234     -1.21311104850886     -0.00003371778332
  N   0.49628118034312     -0.00494074922908     -0.00001969589122
  C   -0.84981170374157     -0.02782667654888     -0.00000794969857
  C   -1.67978461654079      1.11305701522809      0.00000662231129
  N   -2.99963704295641      0.70304063401171      0.00001604213923
  C   -2.98021500910779     -0.63607897585285      0.00000781040395
  C   -1.64706900332831     -1.18874789697363     -0.00000823593617
  C   -0.95470915854855     -2.41863245913100     -0.00002253155508
  C   0.43730964687887     -2.41381974548377     -0.00003476402104
  H   1.01145314546763     -3.33975399461506     -0.00004567905788
  H   -1.48474712865493     -3.37488289365914     -0.00002367271180
  H   -3.91370844733901     -1.20119662232784      0.00001272843938
  C   -1.03823573510189      2.35944591737822      0.00000880383674
  C   0.36259764260202      2.39663818962515     -0.00000332872374
  C   1.16294966459085      1.22995585066857     -0.00001779949100
  N   2.51193227894220      1.23252394352047     -0.00002980796356
  H   0.90484084507690      3.34153848350590     -0.00000205297573
  H   -1.61105268020515      3.28981520685383      0.00002002539338
  H   4.20315071989695      0.05573221083233     -0.00005256430492
