19
Coordinates from ORCA-job ./opt_b3lyp_cdz
  C   -3.06715619451435     -0.12482559886517     -0.00006122692323
  N   -2.42137460737843     -1.29095115088243     -0.00005480719291
  C   -1.07694437111639     -1.22957883729325     -0.00004586216423
  N   -0.49834767932464      0.04757808884435     -0.00003883291994
  C   0.83016670964642      0.09552331128010     -0.00003480905880
  C   1.61314245824330     -1.08080189560355     -0.00003878981039
  N   2.95081650114857     -0.70992883791593     -0.00001758809151
  C   2.96065055436893      0.62295510215117     -0.00006893126488
  C   1.62896757959665      1.22911261545941     -0.00003549008812
  C   0.91820392353734      2.45858781371173     -0.00002316467672
  C   -0.47557820690096      2.44057524984607     -0.00003207717574
  C   -1.24149017706730      1.23004833745605     -0.00004181068328
  N   -2.57049682102564      1.13214650751561     -0.00005041199578
  H   -1.05105124673032      3.36600313459892     -0.00003614630186
  H   1.43370689847877      3.42245419981667     -0.00002777380357
  H   3.90903915373455      1.16337861733427     -0.00006644543304
  N   1.03845780833517     -2.28050287338105     -0.00004570479190
  N   -0.30436518843158     -2.33851759096805     -0.00004807620631
  H   -4.16009235760008     -0.19096493810490     -0.00005236581776
