20
Coordinates from ORCA-job ./opt_b3lyp_cdz
  C   -3.06434376728985     -0.08273555585097      0.00001498465865
  N   -2.43253589505221     -1.26203067945751     -0.00004510300921
  C   -1.09319630309952     -1.22100500480955     -0.00003480469175
  N   -0.47877329181734      0.04306167314811      0.00003808979009
  C   0.85413321981357      0.06957834098297      0.00004876908427
  C   1.60546142663317     -1.13614471250559     -0.00001326015266
  N   0.98979888485164     -2.31992008486448     -0.00008309355970
  N   -0.34699964101281     -2.35298575279383     -0.00009243455593
  C   2.98698452981505     -0.70227286943239      0.00002007707444
  C   3.01386792505904      0.68693403633653      0.00008695737917
  C   1.65517338046485      1.21387628784938      0.00011234765990
  C   0.95206807247663      2.43878362938006      0.00017256542423
  C   -0.44520970265341      2.43463255929077      0.00016347789689
  C   -1.21151090622527      1.23605130516004      0.00009529385137
  N   -2.54831045749648      1.15668745632315      0.00008126435221
  H   -1.01304759134119      3.36457719759364      0.00020816064242
  H   1.47748491473847      3.39735745806675      0.00022458029994
  H   3.91759221427522      1.29546291750019      0.00012098788882
  H   3.85246647291766     -1.36179365697159     -0.00000842765933
  H   -4.15818051395724     -0.13548162994571     -0.00000148077386
