20
Coordinates from ORCA-job ./opt_b3lyp_cdz
  C   3.08151138849738      0.04880585606367     -0.00002132045327
  N   2.49673350539184      1.24602498485825     -0.00002551117651
  C   1.14976578428139      1.24873507449278     -0.00002371496488
  N   0.48961936849093      0.01516043094173     -0.00000498660075
  C   -0.85057476106263     -0.01482918361324      0.00000558653280
  C   -1.61290506998555     -1.19803430553034      0.00000268402729
  C   -2.96360414551457     -0.67657952904954     -0.00012860311014
  N   -3.00946097903502      0.65935805581902     -0.00000565419511
  C   -1.69493333241992      1.10396259389964     -0.00000880315083
  C   -1.06336401954216      2.36024494292696     -0.00002650038757
  C   0.33634837243500      2.41054477943877     -0.00003099487950
  H   0.86760051779385      3.36177031171206     -0.00003735451458
  H   -1.64268348420207      3.28653555362892     -0.00003823666552
  H   -3.88513918740397     -1.26032898644608     -0.00016273511272
  C   -0.84576869331996     -2.37712502104920      0.00003133767509
  N   0.49301312377344     -2.37467972009524     -0.00000034722651
  C   1.18377661706689     -1.21234014312491     -0.00002209731194
  N   2.51531611654446     -1.17330770401083     -0.00002160219963
  H   -1.30848459713091     -3.37101776796216     -0.00003617389632
  H   4.17669172334158      0.05509628949976     -0.00001409408936
