20
Coordinates from ORCA-job ./opt_b3lyp_cdz
  C   -3.11426611142919      0.00000177501941      0.00003419977543
  N   -2.53430110713213     -1.20788371769761      0.00002368162565
  C   -1.19377970419908     -1.22336547672427      0.00000469104529
  N   -0.51565616012058      0.00000043325027     -0.00000239728329
  C   0.82445437935823     -0.00000025668193     -0.00002136465049
  C   1.65186249658035      1.12551182715350     -0.00003122121278
  N   2.95599001385903      0.66513508028142     -0.00004974551539
  N   2.95598931879680     -0.66513776620950     -0.00005512987243
  C   1.65186132584475     -1.12551318061497     -0.00003576552470
  C   1.00349116096421     -2.37958465937643     -0.00002899865857
  C   -0.39193787274941     -2.40346484150413     -0.00000919551593
  H   -0.94193623459221     -3.34409180876602     -0.00000360862005
  H   1.56631936987841     -3.31609229256542     -0.00003956579077
  C   1.00349358814232      2.37958395827391     -0.00002010246307
  C   -0.39193541464225      2.40346558659605      0.00000003740445
  C   -1.19377844383099      1.22336704170689      0.00000941452438
  N   -2.53429986552362      1.20788666083668      0.00002840431057
  H   -0.94193279644258      3.34409312624566      0.00000974959033
  H   1.56632272981995      3.31609102876675     -0.00002621245198
  H   -4.20908628568204      0.00000234770974      0.00005001398338
