20
Coordinates from ORCA-job ./opt_b3lyp_cdz
  C   -2.98375266431518     -0.63151763634636     -0.00004799706226
  C   -1.65289512345467     -1.18163276562698     -0.00004139019243
  C   -0.86058746049633     -0.00760489547997     -0.00003371579988
  C   -1.67736520564594      1.12691421513154     -0.00003985543609
  N   -2.99491506408028      0.71178302394041     -0.00005135217427
  C   -1.01177494301949      2.37631943596632     -0.00003640899604
  C   0.38027935598175      2.39189852144302     -0.00002766551593
  C   1.17057836295369      1.20273820044481     -0.00002323393382
  N   2.51595309603191      1.20285869863871     -0.00001607484026
  N   3.17220995947064      0.04922986811142     -0.00001394774019
  C   2.52809151142008     -1.12474871123809     -0.00001975111268
  C   1.12563911608737     -1.24493505752438     -0.00002748655867
  N   0.42781389518175     -2.40249257273529     -0.00003560686499
  C   -0.91335093911519     -2.37864751885859     -0.00004396386401
  H   -1.39690014277313     -3.36188074961563     -0.00004900907298
  N   0.47719364579966     -0.01248000510550     -0.00002743104960
  H   3.14236277786461     -2.02629589211785     -0.00001863164725
  H   0.93980611344011      3.32686873048561     -0.00002462483947
  H   -1.57006364977526      3.31517629984008     -0.00004103900609
  H   -3.92058817705609     -1.18955631045323     -0.00005432589307
