19
Coordinates from ORCA-job ./opt_b3lyp_cdz
  C   -3.07141099787466     -0.02338220292445      0.00004882433284
  N   -2.53354934141949      1.19996931338544     -0.00002833810685
  C   -1.18855284878111      1.25428829059031     -0.00006400301681
  N   -0.49896450887805      0.04052005545601     -0.00001287664883
  C   0.83034001781654      0.03549370188567     -0.00004266299080
  C   1.57149227736472     -1.15919777603346     -0.00001044200770
  N   0.94064457320751     -2.34511582905145      0.00005195759975
  N   -0.38706664976579     -2.36020841627458      0.00009009667991
  C   -1.13115351549728     -1.20677735394975      0.00006021161196
  N   -2.46252935888027     -1.22651593834388      0.00009339263595
  C   2.93774028193311     -0.65538435997358     -0.00007531242170
  N   2.98898051412069      0.67734515382888     -0.00015770969262
  C   1.67007699457867      1.14267740012050     -0.00013216086491
  C   1.02007189658814      2.39253555002911     -0.00018769908113
  C   -0.38407497656844      2.42538694591555     -0.00015094133835
  H   -0.92100386282999      3.37354291747769     -0.00019224929855
  H   1.58165313172547      3.32977300867510     -0.00026190640973
  H   3.85038834762003     -1.25181944043253     -0.00007433092646
  H   -4.16574270965978     -0.05730104838057      0.00008079164399
