19
Coordinates from ORCA-job ./opt_b3lyp_cdz
  C   -3.10494689037444     -0.06229553366094      0.00002269609540
  N   -2.48605432190363     -1.25712888692544      0.00001340657194
  C   -1.15087738386457     -1.21937828086002      0.00002225859009
  N   -0.52257850765965      0.02038562795945      0.00005107336799
  C   0.80821986232345      0.04071368342245      0.00006612119892
  C   1.63376534151069      1.15759421419119      0.00004645347600
  N   2.93866874069122      0.67291219884598      0.00006448613062
  N   2.92465393000318     -0.65718624215765     -0.00008983818319
  C   1.61298201697470     -1.09831637390539      0.00002407375741
  N   1.06073686899746     -2.33283454302634     -0.00000597552524
  C   -0.27012885029227     -2.36552054029388      0.00000191794141
  H   -0.76194991832004     -3.34136192346428     -0.00003142610592
  C   0.96890870971467      2.40415560365455      0.00001482721908
  C   -0.43228852129103      2.41392114662522      0.00002705732838
  C   -1.22442887243568      1.22775321164996      0.00003781074382
  N   -2.56524802421853      1.16437958309631      0.00003216031125
  H   -0.98631561030182      3.35228821365582      0.00002670905308
  H   1.51535720739547      3.35055973334829      0.00000910698526
  H   -4.19879663094916     -0.09808386235531      0.00003361134368
