14
Coordinates from ORCA-job ./opt_b3lyp_cdz
  C   -2.24796108359292      0.58732772264139      0.00535892421537
  N   -3.42125308638301     -0.00368497885631     -0.00550481209268
  N   -3.53279205220549     -1.35592752646653     -0.01228681527916
  C   -2.42949267664586     -2.07679588666176     -0.00793278495129
  N   -2.49430980073083     -3.45976979882952     -0.01536233116283
  N   -1.41587061012617     -4.16028249566572     -0.01135728483006
  N   -0.16159066976024     -3.61790185734779      0.00077329707707
  C   -0.04968509553983     -2.30527110871792      0.00820541459653
  N   1.18869200709754     -1.69455648299855      0.02093171878626
  N   1.27609672937687     -0.40374233599843      0.02773085670590
  N   0.19968909508529      0.41823792980330      0.02266837820880
  C   -1.00938688252253     -0.13153541060378      0.01113219735855
  N   -1.16945860739678     -1.49717726622260      0.00375875629435
  H   -2.22315726665601      1.67907949592424      0.01027448507319
