18
Coordinates from ORCA-job ./opt_b3lyp_cdz
  C   -3.06305950960455     -0.03379641702381      0.00000036911465
  N   -2.49118590165578      1.18965043886541     -0.00000071878547
  C   -1.15927538687379      1.21273693072188     -0.00000430101345
  N   -0.50524378515710     -0.02093237683960     -0.00001352674550
  C   0.81397891580040      0.00471254237135     -0.00002089282218
  C   1.55431901869165      1.19032167168930     -0.00000611944689
  C   2.91949695107883      0.65861446274885      0.00001901087252
  N   2.95390478151530     -0.67551011544262      0.00001702214444
  C   1.62902819240520     -1.11906127131357     -0.00000046933745
  N   1.07413775576426     -2.34583102584278      0.00001528805541
  C   -0.26719682266243     -2.38807299249899      0.00001086951055
  C   -1.14696619110076     -1.25227490702655     -0.00000039085787
  N   -2.48987765038493     -1.24536680213936      0.00000415987055
  H   -0.74381469179732     -3.37100923741115      0.00002159502398
  H   3.84154626947543      1.24064603340739      0.00003258582127
  N   0.90860842986787      2.37063951602559      0.00001001054119
  N   -0.42391340531496      2.37119231976330      0.00000506708780
  H   -4.15755228604735     -0.03222842795464      0.00000036206647
