13
Coordinates from ORCA-job ./opt_b3lyp_cdz
  N   0.40349060839580      5.25258518876240      8.35005240424429
  N   -0.90266200141473      5.46115494213073      8.38831223082190
  C   -1.67088594047468      4.98277502351488      7.38872197689267
  N   -3.00732927426015      5.16057026774076      7.36738003506628
  N   -3.70450959731810      4.66605864017749      6.35721144580493
  N   -3.17064618656943      3.99674037962257      5.34824552879715
  C   -1.83746819084830      3.79557059727210      5.32939522038285
  N   -1.23090331782323      3.12198948442105      4.33113431720107
  N   0.08165543506642      2.95892259448388      4.37179722638125
  N   0.85396091776548      3.41981263843215      5.34242522170450
  C   0.28897161871076      4.09922754248242      6.36093821330074
  N   1.01884784094953      4.59485254191539      7.38064755136560
  N   -1.07312191217938      4.29253015904418      6.35968862803674
