19
Coordinates from ORCA-job ./opt_b3lyp_cdz
  C   -2.95592163821104     -0.69599041669043      0.00003258300986
  C   -1.60534934052002     -1.21778543390282      0.00007017739626
  C   -0.85942216955749     -0.03973127700962      0.00004917731999
  C   -1.70322528295795      1.08886058726599      0.00005160389718
  N   -3.01171075009404      0.64508536749034      0.00009021291091
  C   -1.03290921698216      2.32093233285609      0.00003441363977
  N   0.31535565729912      2.39921867459189      0.00002010277791
  C   1.05926750934447      1.28382774010849      0.00001966161156
  C   2.47669835627112      1.20366926977732      0.00000293347047
  N   3.14649863925928      0.05949787017238      0.00000761748666
  N   2.52747177717729     -1.13690210842611      0.00002889112270
  C   1.19931426907025     -1.18191652684288      0.00004137315340
  N   0.47324250391196      0.02395444348260      0.00003669794872
  N   0.52138535248424     -2.36635338172802      0.00007628017296
  C   -0.80534749302393     -2.39563315680024      0.00010308689676
  H   -1.25195592369088     -3.39686365347862      0.00009856812654
  H   3.06430427598805      2.12393242882883     -0.00001521574629
  H   -1.56838192969441      3.27557561998697      0.00004573051091
  H   -3.87727894617387     -1.28009634408219      0.00004149119374
