25
Coordinates from ORCA-job ./opt_b3lyp_cdz
  C   -3.93964532370703     -0.00003388315661      0.01486141713035
  C   -2.43286788566885     -0.00007320468407     -0.01570222595782
  C   -1.71844657554117     -1.19523700081749     -0.01489023160657
  C   -0.30668575690744     -1.22103678359813     -0.00650989555414
  C   0.41890700514879     -2.43586189135670     -0.00398419787658
  C   1.80551703355677     -2.43554327459258      0.00271622471961
  C   2.50384969687020     -1.23655106135072      0.00687126703239
  C   1.81909616584802      0.00003923344921      0.00396820541258
  C   2.50380427054409      1.23661278835979      0.00688788894119
  C   1.80540961074753      2.43560868854177      0.00274969201845
  C   0.41883404044534      2.43588385144022     -0.00395174125492
  C   -0.30675877046275      1.22101227861959     -0.00649619439702
  C   -1.71846994668127      1.19516569507334     -0.01488391945125
  H   -2.23089607370630      2.15758988137926     -0.02050139975165
  N   0.40416289343533      0.00000193710953     -0.00216161566063
  H   -0.15498334153069      3.36187853776711     -0.00709333304246
  H   2.35013317548828      3.38324785663540      0.00474047160458
  H   3.59274824754596      1.20624517578106      0.01198404797308
  H   3.59279335514066     -1.20614206424500      0.01196798339371
  H   2.35027085327804     -3.38316487454966      0.00469249794100
  H   -0.15487875256796     -3.36187526139350     -0.00713846980326
  H   -2.23082639420936     -2.15768419662426     -0.02050947928904
  H   -4.35268961138790     -0.89460438250838     -0.47586184572704
  H   -4.35263033084480      0.89248786480578     -0.47966717732296
  H   -4.30344107267858      0.00227780661685      1.05768046274129
