18
Coordinates from ORCA-job ./opt_b3lyp_cdz
  C   2.98100963490592      0.64096357896306     -0.00000537656146
  C   1.63927386160978      1.19848310705772     -0.00004680496598
  C   0.86869731304889      0.03170435892897     -0.00002645066069
  N   -0.46160890687930      0.00507737918194     -0.00001926748376
  C   -1.10043895986116     -1.23057302143011     -0.00001389063114
  N   -2.45525653971236     -1.20776839225594     -0.00000050481647
  N   -3.09323324687227     -0.05488321698818     -0.00000032402655
  N   -2.49371229817975      1.14343721717196     -0.00001755025274
  C   -1.15693544096039      1.21132131440547     -0.00002590831214
  N   -0.47403418022132      2.37968407590975     -0.00006270211740
  C   0.86397887229331      2.38383714817741     -0.00009198797187
  H   1.32437063082555      3.37832752753222     -0.00008123882616
  N   -0.38548193416046     -2.36277469716301     -0.00002357160396
  C   0.96301436560872     -2.32420737279715     -0.00003803343264
  C   1.67634138655134     -1.11297092085679     -0.00004195575733
  N   2.99968832539231     -0.69781635012513     -0.00008602295935
  H   1.46716392006066     -3.29611444601289     -0.00006057258444
  H   3.91684647215054      1.20122112330067     -0.00001301313594
