19
Coordinates from ORCA-job ./opt_b3lyp_cdz
  C   -2.98966706842554     -0.59255327382313      0.00002792424807
  C   -1.66579444444854     -1.17637447250027      0.00002998047394
  C   -0.85946914766656     -0.02258170207789      0.00001423031876
  C   -1.64385384224139      1.13202674797504      0.00003227864509
  N   -2.97391326193202      0.74850262202270      0.00008761845635
  C   -0.90609593522843      2.33705134535478      0.00002430306941
  N   0.43074506628306      2.35237316653106      0.00001585047020
  C   1.14389868295206      1.20423279374952      0.00000916218070
  N   2.48721594387410      1.20602258664143     -0.00000123474765
  N   3.14327548269722      0.04881517003421     -0.00000545807552
  C   2.51718751002578     -1.13376388111331      0.00000320516551
  C   1.11596046800155     -1.26478755516360      0.00001282388619
  N   0.47454918623100     -0.03245893808272      0.00000769600674
  N   0.40665960918851     -2.41735144473908      0.00003298195433
  C   -0.93314768478601     -2.38343078316458      0.00005151689652
  H   -1.42391475519191     -3.36294534589948      0.00005686805000
  H   3.14563939357380     -2.02564683380807      0.00000525489786
  H   -1.39794948580196      3.31585398059974      0.00005729772725
  H   -3.93835479810475     -1.13033849503634      0.00004110727626
