18
Coordinates from ORCA-job ./opt_b3lyp_cdz
  C   2.97053343032532      0.57877980280278     -0.00025328932055
  C   1.63712820014373      1.15084980482246     -0.00009480672344
  C   0.85060242309434      0.00007251304492     -0.00008950072723
  C   1.63829337128516     -1.16154048830858     -0.00015175127395
  N   2.96732425376694     -0.76466529043103     -0.00012519519179
  C   0.89590878132619     -2.35081796385030     -0.00018830650697
  N   -0.46084242275706     -2.35436731619486     -0.00013536634116
  C   -1.14729885779136     -1.21065591970326     -0.00007140697571
  N   -2.50580073276788     -1.14201168071712     -0.00002986433471
  N   -3.11283229206743      0.02495258122052      0.00002525112956
  N   -2.47081623037639      1.20820843525024      0.00004052078022
  C   -1.13681440907070      1.21947694599759      0.00000108296872
  N   -0.47556978303335      0.00818537725325     -0.00004941222339
  C   -0.28388059909639      2.39193191808911      0.00002372407780
  N   1.04367899820016      2.37699828111429     -0.00002105715534
  H   -0.79244344091422      3.35902158539005      0.00006557218062
  H   1.37007026928634     -3.33748937468168     -0.00020348796371
  H   3.91293774704663      1.12776167570163     -0.00028425509899
