19
Coordinates from ORCA-job ./opt_b3lyp_cdz
  C   0.92747604153524      2.36844327618889      0.00003303311025
  C   1.64441302605117      1.15022409225352      0.00001643013512
  C   0.82779827564350      0.01784649618600     -0.00000256162581
  C   1.58971892861965     -1.15697897971443     -0.00001583263686
  C   2.93283290894749     -0.62662810491544     -0.00000220899648
  N   2.96018069601559      0.71946846367943      0.00001425710244
  H   3.86063807251854     -1.19876008428840     -0.00000654052402
  N   0.96219679828560     -2.36832776005793     -0.00003317384190
  N   -0.34698828722786     -2.38994819294490     -0.00003678599379
  C   -1.10849602088780     -1.22953613656948     -0.00002301701570
  C   -2.50570499143586     -1.18147490149673     -0.00002507522357
  N   -3.19014579573951     -0.02290015936973     -0.00001050694277
  C   -2.55006516270722      1.14665715375607      0.00000712190113
  C   -1.14023826531161      1.26009061712809      0.00001160380071
  N   -0.41458683462554      2.40137402213173      0.00002989233981
  N   -0.49749433263552      0.02105322277094     -0.00000501656462
  H   -3.14557516088404      2.06287272312642      0.00001890211441
  H   -3.06935290320448     -2.11650893858345     -0.00003898722381
  H   1.43051193604267      3.34105325611940      0.00004847158549
