24
Coordinates from ORCA-job ./opt_b3lyp_cdz
  N   3.84844686361313      0.00000740264102      0.09001122821693
  C   2.47036190981507      0.00000559655265      0.02625956421547
  C   1.75329630270032      1.20246726256763      0.01958461201932
  C   0.34754857695006      1.22015122479683      0.01173600571015
  C   -0.38167807617800      2.43531300410520      0.00662867276117
  C   -1.76726622713885      2.43409040150568     -0.00447794985914
  C   -2.46780668158660      1.23516956495966     -0.01083468292299
  C   -1.78386865862001     -0.00000174360394     -0.00543739461180
  C   -2.46780225966107     -1.23517535883361     -0.01085549359094
  C   -1.76725750110536     -2.43409384866486     -0.00451975596823
  C   -0.38166939665561     -2.43531167539898      0.00658658488030
  C   0.34755296660975     -1.22014735162909      0.01171539238776
  C   1.75330056545186     -1.20245858763428      0.01956557934113
  H   2.26812226718819     -2.16360751607003      0.02958062738760
  N   -0.36697378164204      0.00000070636979      0.00618949241742
  H   0.19024208949208     -3.36268128443378      0.01246916615299
  H   -2.31117015412903     -3.38236340000376     -0.00792178228500
  H   -3.55676506872641     -1.20574369492307     -0.01947826182013
  H   -3.55676938041247      1.20573414581048     -0.01945837388624
  H   -2.31118226497860      3.38235806468880     -0.00786346186816
  H   0.19023010370825      3.36268454821227      0.01252772752669
  H   2.26811458693063      2.16361787818423      0.02961448375059
  H   4.31545105792523     -0.84733694783506     -0.21354557108311
  H   4.31544768320607      0.84736009787401     -0.21352747368216
