19
Coordinates from ORCA-job ./opt_b3lyp_cdz
  C   -2.96487951353447     -0.63019258603793      0.00017553851339
  C   -1.63923729534787     -1.20903822789364      0.00011356076294
  C   -0.84362250023761     -0.04470935811040      0.00005009402516
  C   -1.63503815200291      1.10591134517157      0.00000847657650
  N   -2.95670606663118      0.71424400508116      0.00002905870752
  N   -1.06077449156923      2.33442626679393     -0.00004996382942
  C   0.26748430871427      2.35455151953981     -0.00005933353864
  C   1.13250038392028      1.19807301620257     -0.00001278334187
  N   2.47174544194949      1.24455152179505     -0.00001780331883
  N   3.15930988005882      0.10465566540307      0.00003216509323
  C   2.55127983087683     -1.09024322948849      0.00008995654905
  C   1.15119636133036     -1.25490550639409      0.00010113192030
  N   0.48488892191011     -0.03442657761027      0.00004271032816
  N   0.45845644522256     -2.41405240942105      0.00014816918394
  C   -0.88707590514527     -2.40074772853170      0.00013809322725
  H   -1.35857968824440     -3.38960619578200      0.00022864966549
  H   3.19799553624446     -1.96911668060942      0.00012383536071
  H   0.77148068862881      3.32426726013330     -0.00010851941663
  H   -3.91091370034309     -1.17229220024148      0.00023130903177
