18
Coordinates from ORCA-job ./opt_b3lyp_cdz
  C   -3.04526990443733     -0.02053788547179      0.00003117021103
  N   -2.49960255576522      1.20275574100524      0.00001836768961
  C   -1.15892748723198      1.25505272028652      0.00001494478655
  N   -0.43427790249154      2.38531366943697      0.00000079150349
  C   0.91611125225999      2.35585667831302     -0.00000373307141
  C   1.63867199010839      1.14904576498062      0.00000989203282
  C   0.83003135964789      0.01937589844306      0.00002501548114
  C   1.58383923652311     -1.15694534575655      0.00002918771869
  C   2.94311386697118     -0.62082247263628      0.00000989574391
  N   2.96930436686341      0.71244502430866      0.00001000300117
  H   3.86881751453035     -1.19700603249068      0.00000822176302
  N   0.95482157707106     -2.35171567348300      0.00003813254962
  N   -0.36924912087407     -2.37615668550433      0.00004252178223
  C   -1.12361198293734     -1.22394226234006      0.00003635055647
  N   -0.49396560720025      0.01851243811565      0.00002689077304
  N   -2.45367194074554     -1.23361809975291      0.00003945203639
  H   1.40975104414761      3.33342835278746     -0.00001522134472
  H   -4.13986192463971     -0.04223820554162      0.00003430538696
