19
Coordinates from ORCA-job ./opt_b3lyp_cdz
  C   2.95698341410732      0.54985041596809      0.00005940951078
  C   1.64720432477283      1.15123343996890      0.00001189126705
  C   0.82285173549882      0.00988892889445      0.00000889554499
  C   1.58785194739941     -1.16285153049660      0.00005300785944
  N   2.91491690632744     -0.80096561533782      0.00007999432135
  N   0.97692791316055     -2.36961311753050      0.00006899007332
  C   -0.35612225529203     -2.34724622190020      0.00004155785811
  C   -1.18541580721278     -1.16855647506246      0.00000117367373
  N   -2.52855634338665     -1.16701661553721     -0.00002106907757
  N   -3.17967823076838     -0.00769141442205     -0.00005327858969
  C   -2.52796156468840      1.16767485578600     -0.00006189972938
  C   -1.12666942968888      1.27767253427238     -0.00004094264035
  N   -0.49903129445394      0.04501867853868     -0.00001229358364
  C   -0.24981060024865      2.42340796272234     -0.00004173617284
  N   1.08253082364880      2.38430302388598     -0.00001473124465
  H   -0.72002710552808      3.41053565540195     -0.00006358567047
  H   -3.15819355119886      2.05932440171721     -0.00008722688026
  H   -0.88797154363042     -3.30171939500841      0.00005232506132
  H   3.91400749438189      1.07185478583929      0.00007540541876
