17
Coordinates from ORCA-job ./opt_b3lyp_cdz
  C   -3.03468779200022     -0.06121225584380     -0.00003126373326
  N   -2.44415262538903     -1.26245739754375     -0.00002499355307
  C   -1.10074188861630     -1.25627681483431     -0.00000912541871
  N   -0.50055454993809      0.00265834220812      0.00001203625884
  C   0.81085670427759      0.03428406652364      0.00003334633439
  C   1.55429322184641      1.20163538328434      0.00001581124574
  N   0.90008822523182      2.38987592271356     -0.00002038634468
  N   -0.42447406310294      2.39057006099422     -0.00002598285101
  C   -1.16598556238054      1.22480872895691     -0.00001235125997
  N   -2.49188303890076      1.18230839007959     -0.00003099798528
  C   2.91831087386400      0.64471817679663      0.00000836274130
  N   2.93881628352265     -0.68715228025875     -0.00001463847783
  C   1.60394140069524     -1.11060962788075      0.00001118893294
  N   1.02026378638704     -2.31476009624641     -0.00001970430037
  N   -0.32373157547573     -2.36944158601250     -0.00001953943162
  H   3.84869472940403      1.21397803490972     -0.00000493248200
  H   -4.12896320852516     -0.08066372904645     -0.00003726907541
