18
Coordinates from ORCA-job ./opt_b3lyp_cdz
  C   2.90584208080761      0.64610027914738      0.00009294311102
  N   2.92476568250199     -0.69995010605447      0.00003206579238
  C   1.60665158220713     -1.11491337230405      0.00002934687073
  C   0.80605933743497      0.03261575368756      0.00002234102991
  C   1.56175812128063      1.19743534670398      0.00004256982154
  N   0.91292698938191      2.40446529637725      0.00003605079503
  N   -0.39651932060294      2.40730074100263      0.00002114729742
  C   -1.14890609482268      1.23637474023110      0.00000990526385
  N   -0.50737296164655      0.00261434650082      0.00000879050316
  C   -1.08633921059357     -1.25952510381073     -0.00000035972543
  N   -0.30606057373108     -2.38238098291197      0.00000544880465
  N   1.02389925885714     -2.33164257436930      0.00002082105561
  C   -2.50117991908636     -1.20519242269080     -0.00001335372552
  N   -3.17742386747872     -0.05730180598829     -0.00001510799599
  C   -2.54181112603263      1.13360776866360     -0.00000343801922
  H   -3.14919398075612      2.04080278463907     -0.00000618699549
  H   -3.06533733751092     -2.14099234167017     -0.00002188082028
  H   3.83974006749021      1.20868867204640      0.00011411193662
