17
Coordinates from ORCA-job ./opt_b3lyp_cdz
  C   -2.93857829698803     -0.58315046723391      0.00001057978993
  N   -2.91405274009369      0.75554937306273      0.00002294916743
  C   -1.57573265392844      1.13877561327817     -0.00001820636840
  C   -0.81656452729935     -0.02093845515034     -0.00005825979845
  C   -1.60145973656502     -1.17519703884640     -0.00002846904743
  N   -0.98764919019341     -2.38235615247720      0.00000719543111
  N   0.34000648949903     -2.41941875345961      0.00000280289013
  C   1.10183392216254     -1.27525716927435     -0.00001412726396
  N   0.49473199119091     -0.03514529805053     -0.00003795917579
  C   1.13078435167926      1.20350790681365     -0.00001120189396
  N   2.47366208174201      1.21192655932091      0.00000196077689
  N   3.11999136702926      0.04710445417731      0.00000217530850
  C   2.50263879204237     -1.14800131071708      0.00000096379801
  H   3.14453574781211     -2.03000946744076      0.00001288294968
  N   0.37702279743898      2.35106827776323      0.00001123947282
  N   -0.95017293096187      2.33733942550938      0.00002024115445
  H   -3.88735052056667     -1.12003372157522      0.00003691350901
