16
Coordinates from ORCA-job ./opt_b3lyp_cdz
  C   -0.26731479500282     -2.39789034633358      0.00004917332805
  N   1.06632798384717     -2.35896662068697      0.00006426338679
  C   1.62321931970066     -1.11837226756922     -0.00014502713353
  C   0.80756112296960     -0.01476251174510     -0.00039597703215
  C   1.56327885698392      1.14861387790002     -0.00012767387994
  N   2.89869433626242      0.71918731851202      0.00012657070858
  N   2.93069994647752     -0.60559497626696      0.00015673465102
  N   0.93960478395275      2.34100694800033      0.00015749001480
  N   -0.39948716894541      2.34616462832523      0.00010108595591
  C   -1.13495119068418      1.19520408704241     -0.00005724410502
  N   -2.48480255842386      1.15872618444595      0.00004590074970
  N   -3.10687768226980     -0.01517774477775      0.00005410330234
  N   -2.48932017628394     -1.20650708910591      0.00007856156702
  C   -1.15028841943111     -1.24296172095063     -0.00005772271370
  N   -0.50291152968070     -0.02988038942734     -0.00025953204867
  H   -0.74991659877224     -3.37824361476248      0.00021123334877
