16
Coordinates from ORCA-job ./opt_b3lyp_cdz
  C   3.04183480736496     -0.00000188145904      0.00004361326155
  N   2.47482997763572      1.22494184389616      0.00003711606114
  C   1.14139958543274      1.24088150216369     -0.00003450876913
  N   0.51967715028145     -0.00000089460217     -0.00015341376829
  C   -0.78869392816705     -0.00000035308920     -0.00022650762823
  C   -1.56713904853800      1.13273066014174     -0.00008059224074
  N   -2.90201266915193      0.65684208676357      0.00008023031558
  N   -2.90201320391801     -0.65684103444474      0.00009000286035
  C   -1.56713997881667     -1.13273070288291     -0.00008059174056
  N   -0.96557328529943     -2.34274007546608      0.00007510082543
  N   0.36545599869930     -2.37878116066605      0.00005071783561
  C   1.14139860508220     -1.24088377477173     -0.00003452641687
  N   2.47482897074731     -1.22494519103982      0.00003685586345
  N   -0.96557140412451      2.34273951220536      0.00007610356960
  N   0.36545795306352      2.37877946683151      0.00005135828705
  H   4.13600299410841     -0.00000233808027      0.00005601778405
