18
Coordinates from ORCA-job ./opt_b3lyp_cdz
  C   -2.96459843271436     -0.60777543226436      0.00001514932550
  C   -1.64073755976058     -1.21571287296906     -0.00001456798647
  C   -0.83885081424233     -0.07156714856883      0.00001308892878
  C   -1.60461841936418      1.09793711738846     -0.00001405916066
  N   -2.93840290029080      0.73144402023424     -0.00007293208989
  N   -0.99816660213990      2.30260584845944     -0.00002202363500
  N   0.32597134000044      2.33658355035931      0.00000206709481
  C   1.09105507631850      1.19967036445246      0.00001811554084
  N   2.43342894094251      1.25903507024423      0.00003324719408
  N   3.12613676798764      0.12514378630222      0.00003602782464
  C   2.54802897763134     -1.08759302019216      0.00001837694844
  C   1.15407583054013     -1.27284217495173      0.00000321404633
  N   0.48352411065668     -0.05638693900751      0.00001578031741
  N   0.45347695841023     -2.43186659501143     -0.00003572816067
  C   -0.88824906628273     -2.41615732427230     -0.00006865198075
  H   -1.36296406694746     -3.40336234283659     -0.00006265587726
  H   3.21788410420527     -1.94868404270812      0.00001022149111
  H   -3.91883726285040     -1.13585605415827     -0.00000010062122
