18
Coordinates from ORCA-job ./opt_b3lyp_cdz
  C   -2.95665409435472     -0.52575134881958      0.00007447660817
  C   -1.64705597960276     -1.15574169098990      0.00005990891452
  C   -0.81963336103543     -0.03642021282260     -0.00001110244837
  C   -1.55783358185154      1.15525296982256     -0.00000801395330
  N   -2.89835580011575      0.81776219935925      0.00005687612820
  N   -0.91735304449990      2.33596485196510     -0.00001563603898
  N   0.41581554230871      2.32487952936356     -0.00003631012188
  C   1.14314729043253      1.17081981462527     -0.00002322330904
  N   2.49141533979274      1.18207255317611     -0.00002464567450
  N   3.14762571376298      0.02939327023686      0.00001291698250
  C   2.52540420346447     -1.16544069277905      0.00006128666081
  C   1.12933564086219     -1.29647963300781      0.00006103867658
  N   0.49769150486616     -0.06820870183327      0.00000124184458
  C   0.24314413269135     -2.44260967058969      0.00012003761717
  N   -1.08596382710990     -2.39776384059980      0.00012821745661
  H   0.70813742753935     -3.43237729397378      0.00016961362140
  H   3.17841737663174     -2.04015980343668      0.00009982295651
  H   -3.92132961068218     -1.03444887659656      0.00012204257903
