18
Coordinates from ORCA-job ./opt_b3lyp_cdz
  C   -0.85453304587345     -2.37123640038647      0.00018826510416
  C   -1.61408744761459     -1.17508003894700      0.00009759385712
  C   -0.83614844557993     -0.02940733734354      0.00000256468742
  C   -1.62654210816795      1.13492708335514      0.00000824992897
  C   -2.96330916417628      0.56556419430316      0.00015013404852
  N   -2.94930095310382     -0.77350842253326      0.00012141139593
  H   -3.90578221405183      1.11296019058405      0.00018788561730
  N   -1.03302216209229      2.34653839355590     -0.00001018023945
  N   0.29307992950190      2.40129388875393     -0.00003585716593
  C   1.06255558455491      1.26613954537890     -0.00001689834388
  N   0.48588216050487      0.01120536293516      0.00001011592215
  C   1.18463901910492     -1.20530899935638      0.00008645427152
  N   2.52599172487499     -1.15535435314363      0.00008379637203
  N   3.13368828028544      0.03194225758675      0.00002654474538
  C   2.46846999436093      1.19456660685015     -0.00001428439611
  H   3.06701510546673      2.10663747185128     -0.00004775197587
  N   0.48490836816584     -2.36296522705571      0.00016523191721
  H   -1.32525058496042     -3.36026447238842      0.00026232725353
