17
Coordinates from ORCA-job ./opt_b3lyp_cdz
  C   -0.80720874870727     -2.39451483396858      0.00005445156247
  C   -1.58293059601731     -1.19528679601851     -0.00000117216175
  C   -0.81162981898894     -0.05932837387862     -0.00003839994619
  C   -1.63477373693912      1.06764850560701     -0.00002069978329
  N   -2.93995920941073      0.58578106622725      0.00007294941747
  N   -2.90928905588128     -0.73996416556465     -0.00002563806458
  N   -1.08945022008143      2.30030897320677     -0.00001060215587
  N   0.23856591435785      2.38682357758434     -0.00002020351744
  C   1.04196658015621      1.27838602956735     -0.00002358306323
  C   2.45454285333320      1.23360752527926     -0.00001865631599
  N   3.13835268028084      0.08669178747993     -0.00000793668888
  N   2.55257605561715     -1.12140720472341      0.00000669749686
  C   1.22032930772583     -1.19422396995809     -0.00000069873042
  N   0.50471096955900      0.00935131403696     -0.00002888224489
  N   0.52576457754124     -2.36626790055137      0.00003446977381
  H   3.03768603213507      2.15605064593408     -0.00002505835586
  H   -1.26340782308030     -3.39030510925969      0.00005810717775
