17
Coordinates from ORCA-job ./opt_b3lyp_cdz
  C   -0.91929414626296     -2.35679774545134      0.00012499047483
  C   -1.65159726251239     -1.15304946911177      0.00004324159556
  C   -0.84784242936435     -0.01857933599346     -0.00001053341724
  C   -1.59780594351980      1.15889321458188     -0.00005707551386
  C   -2.95414816364745      0.62056589670381      0.00003212638865
  N   -2.97853715827306     -0.71647154946713     -0.00001108651835
  H   -3.88211990253102      1.19283932480626      0.00001655591103
  N   -0.95837761990925      2.35236094031219     -0.00011077916325
  N   0.36548533417677      2.36956999017681     -0.00010294315856
  C   1.10642842988473      1.20918050182393     -0.00004049184560
  N   2.44356948178469      1.19851112392736     -0.00003174835779
  N   3.08361271018919      0.01856974515906      0.00002633792146
  N   2.49064963043126     -1.16258642391479      0.00008140519992
  C   1.13787219916718     -1.23600310281527      0.00007401707714
  N   0.47167842758779     -0.01758167523493      0.00000343018402
  N   0.43326787961781     -2.37499928332855      0.00012943867501
  H   -1.40422319211911     -3.33832298527405      0.00015665854705
