19
Coordinates from ORCA-job ./opt_b3lyp_cdz
  C   -2.56932417980070     -1.15919043219007     -0.00009017136823
  N   -3.24406062890309     -0.00009144903579     -0.00004247194873
  C   -2.56939231030236      1.15904718778775      0.00001907796075
  C   -1.16843716845737      1.23593653015203      0.00003983000773
  C   -0.28544319119724      2.39073810230275      0.00009690063725
  N   1.03875906971796      2.37420557834870      0.00010374644182
  C   1.60316967044275      1.12993090937311      0.00005659760030
  C   0.78530697984481      0.00002688342637      0.00000989585237
  C   1.60323602781388     -1.12982911223789     -0.00005073559963
  N   2.89200424045991     -0.67947416088337     -0.00003308584342
  N   2.89196432027363      0.67965167975474      0.00002806214908
  N   1.03889853485062     -2.37413695407061     -0.00012200622502
  C   -0.28530274543825     -2.39074720952156     -0.00013017264788
  C   -1.16836453069585     -1.23599746193387     -0.00007707688631
  N   -0.53399389462834     -0.00001183195179     -0.00000677429060
  H   -0.77155498269174     -3.37134809670664     -0.00018550321294
  H   -0.77175305952991      3.37131042633675      0.00013416205628
  H   -3.16074144148929      2.07904211255669      0.00005389075548
  H   -3.16061919766938     -2.07922012790731     -0.00014228963828
