17
Coordinates from ORCA-job ./opt_b3lyp_cdz
  C   -2.51024135412412     -1.21187795838401      0.00011213274444
  N   -3.15536816902693     -0.03821869984471      0.00011263279538
  N   -2.51958226072158      1.14189383161187      0.00007224503719
  C   -1.18535029291798      1.15228649165433     -0.00002135010295
  N   -0.45777074622940      2.33300029216869      0.00002009619065
  N   0.85910089734944      2.36368860768577      0.00001807887800
  C   1.51991277341462      1.17477481176388     -0.00011099157433
  C   0.79380137544503     -0.00166064108254     -0.00021679756854
  C   1.66032636865198     -1.08242506895021     -0.00007556377154
  N   2.93851897831594     -0.53850606496104      0.00005019232581
  N   2.85596427589752      0.79507264218957      0.00002662781263
  N   1.15459475081767     -2.34177773757938      0.00006109708582
  C   -0.17806711807658     -2.42808163423170      0.00007120619896
  C   -1.10330667443831     -1.31597983713060      0.00001666650652
  N   -0.51745265908672     -0.06914228863082     -0.00011226047576
  H   -0.60756706018711     -3.43365534614631      0.00017097340418
  H   -3.14505240898348     -2.10061072813278      0.00018789911358
