21
Coordinates from ORCA-job ./opt_b3lyp_cdz
  H   -4.24985259944182     -1.30849031074399     -0.00000807087581
  C   -3.35923550514712     -0.68166572588598     -0.00000130990572
  C   -1.98921019650894     -1.16728102563788     -0.00000662946031
  C   -1.20815500182109      0.00128237924705      0.00000577903194
  N   0.13520555396517     -0.00479330586002      0.00000665268301
  C   0.81470208801360      1.22749415164041      0.00002056403162
  N   2.14820035102534      1.19250190276871      0.00002041303031
  C   2.71581776058667     -0.02548290175469      0.00000664266597
  N   2.14100270665635     -1.23234335860518     -0.00000500356060
  C   0.80879139693129     -1.24449854326949     -0.00000534034684
  N   0.09810972159560     -2.38749073525023     -0.00001757604722
  C   -1.24361030408379     -2.35670083848474     -0.00001828475175
  H   -1.72914266216597     -3.33955611284052     -0.00002789436052
  O   4.05176182786378     -0.04273202883281      0.00001075203641
  H   4.32943015351026      0.89079149135513      0.00002163711956
  N   0.11994227862747      2.37844978970946      0.00003231367226
  C   -1.22374703522744      2.36016195083619      0.00003101240237
  C   -1.97908004539287      1.17852812467224      0.00001811580334
  C   -3.35336535315262      0.70559217154057      0.00001428885235
  H   -4.23836106481153      1.34026448299097      0.00002148920797
  H   -1.69978145802237      3.34752433500482      0.00004256737167
