17
Coordinates from ORCA-job ./opt_b3lyp_cdz
  C   2.52928929630326      1.17268908027770     -0.00005624702104
  N   3.18168070510780      0.00002196356474     -0.00004609319361
  C   2.52930671689144     -1.17265673498956     -0.00001703648967
  C   1.12544730006562     -1.24991021744974      0.00000937049869
  N   0.34054527044655     -2.39226656684076      0.00002481536950
  N   -0.97585482981691     -2.35800879458815      0.00003185720084
  C   -1.57398340714711     -1.13080083115136      0.00003613001394
  C   -0.78177437430152      0.00001690266930      0.00003313383221
  C   -1.57401525335252      1.13080080938384     -0.00000170462628
  N   -2.88470471183710      0.66820313482547     -0.00001147032284
  N   -2.88468612932923     -0.66823879314939      0.00001469274412
  N   -0.97590099670708      2.35800447651264     -0.00004674210443
  N   0.34049480296950      2.39223553382347     -0.00005501309687
  C   1.12542787920012      1.24991159774708     -0.00003242427229
  N   0.52829505665101      0.00000260648227      0.00000927480118
  H   3.12032335721942     -2.09124869424217     -0.00001644552115
  H   3.12028901303676      2.09129192082460     -0.00008608971231
