15
Coordinates from ORCA-job ./opt_b3lyp_cdz
  N   3.07888467645264     -0.00001036484423      0.00021916667955
  N   2.46695500674154      1.18864279691634      0.00025561470372
  C   1.12303651711210      1.22641735868369     -0.00016447984731
  N   0.49966869164266     -0.00000244991228     -0.00090259606690
  C   -0.80515391342121      0.00000156975592     -0.00135383444210
  C   -1.58015317348427      1.13522717793439     -0.00047214558063
  N   -2.91224179430203      0.65859496051201      0.00050916413669
  N   -2.91224586484314     -0.65857879262039      0.00051522338933
  C   -1.58016019053742     -1.13521923986956     -0.00047368296149
  N   -0.97004766116576     -2.34347433587364      0.00045933765419
  N   0.36250112304212     -2.37137603749851      0.00033924359238
  C   1.12302897713594     -1.22642610419444     -0.00016540261698
  N   2.46694765831236     -1.18865982293543      0.00025601738968
  N   -0.97003322286658      2.34347849776840      0.00046462683207
  N   0.36251577028104      2.37137194257776      0.00034359913782
