20
Coordinates from ORCA-job ./opt_b3lyp_cdz
  H   4.27624481112920      1.32427692993154      0.00005388502257
  C   3.38823081868834      0.69395355713192      0.00006353273592
  C   2.01747351683852      1.17392946055210      0.00007437922102
  C   1.24106771891895     -0.00000103469102      0.00007851278502
  N   -0.10011905984899      0.00000041844226      0.00008257884690
  C   -0.77570023159564     -1.23688536263647      0.00008344098193
  N   -2.11310309420990     -1.20834729219822      0.00009274913249
  C   -2.65820116729720      0.00000319885129      0.00011697402828
  F   -3.98566018552479      0.00000462258768      0.00003161087914
  N   -2.11310049552255      1.20835251606948      0.00009027930117
  C   -0.77569755694129      1.23688766627344      0.00008026573639
  N   -0.07627176018396      2.38172931114954      0.00007812126779
  C   1.26776439953703      2.35926372267605      0.00007847949456
  H   1.74719276442530      3.34470159333228      0.00007028852185
  N   -0.07627695133406     -2.38172853249956      0.00008232457716
  C   1.26775925510460     -2.35926586548096      0.00008022550887
  C   2.01747092985239     -1.17393323271716      0.00007861101309
  C   3.38822928643611     -0.69396033603322      0.00008360587140
  H   4.27624188682685     -1.32428568310282      0.00008820862247
  H   1.74718547790109     -3.34470476843817      0.00008363895196
