20
Coordinates from ORCA-job ./opt_b3lyp_cdz
  H   1.78986114129654      2.89886999277685     -0.00052480192192
  C   0.80605125504073      2.43380897523674     -0.00033567327592
  C   0.56388514087248      1.00914939068443     -0.00041282689248
  C   -0.83961402891596      0.88830395621430     -0.00009248917647
  N   -1.49192746478108     -0.28334952329237     -0.00003508732713
  C   -2.90121072776425     -0.27539079158768      0.00030745089988
  N   -3.52515278775414     -1.45938726127584      0.00035386737719
  C   -2.74523239743570     -2.54573948166013      0.00007264719948
  N   -1.40587690892015     -2.63079007484319     -0.00025337995788
  C   -0.74159183968121     -1.47517578639008     -0.00031216485570
  N   0.60333603994978     -1.40543477338506     -0.00062425298905
  C   1.21959224556480     -0.23361799671002     -0.00067091531069
  Br  3.13310275099046     -0.27964398305264     -0.00111712705749
  H   -3.27418073393679     -3.50466235825808      0.00011144369972
  N   -3.56365573517009      0.89411303103436      0.00057165016788
  C   -2.89325727380756      2.05636089874166      0.00051227212462
  C   -1.49093046268216      2.13839557429762      0.00017625269820
  C   -0.41276199236037      3.10434998050488      0.00001171171811
  H   -0.53445137298798      4.18641056766507      0.00013899687036
  H   -3.52057821131735      2.95506023929919      0.00074925030924
