20
Coordinates from ORCA-job ./opt_b3lyp_cdz
  H   -5.33722858368074     -1.32419169075936      0.00003173266971
  C   -4.44866588213407     -0.69459446581055      0.00000602908015
  C   -3.07955747035764     -1.17452363812199     -0.00004669577162
  C   -2.30268024658631      0.00000374067565     -0.00006127087218
  N   -0.96274133156859     -0.00000106122280     -0.00008775300807
  C   -0.28694352143970      1.23627474977959     -0.00008562429775
  N   1.05164812547438      1.20728474688907     -0.00012235988660
  C   1.60880418013325     -0.00001022456571     -0.00016676166851
  N   1.05163952816275     -1.20730123181755     -0.00013438258207
  C   -0.28695233322925     -1.23628168008442     -0.00009798375792
  N   -0.98578134240946     -2.38201335893125     -0.00008983830373
  C   -2.32926711086862     -2.36041002387949     -0.00006786863110
  H   -2.80864323362939     -3.34587010550650     -0.00004382253176
  Br  3.52375492425216     -0.00001698361912     -0.00009815083808
  N   -0.98576432555761      2.38201142956890     -0.00006614585446
  C   -2.32925023795147      2.36041771135191     -0.00004456238270
  C   -3.07954904257169      1.17453669962965     -0.00003486957087
  C   -4.44866087775699      0.69461735757021      0.00001415506731
  H   -5.33721903207053      1.32422099509168      0.00004696321087
  H   -2.80861932941046      3.34588119926211     -0.00001010997062
