23
Coordinates from ORCA-job ./opt_b3lyp_cdz
  H   -3.82561685793245     -0.93365884192576      0.00018005553490
  C   -2.74210220117871     -1.04413122814420      0.00011046197778
  C   -1.78588418136138      0.04454094057607      0.00007988825956
  C   -0.53638761790676     -0.59584036405151      0.00001367396065
  N   0.63467094302237      0.05730889247706     -0.00001443717150
  C   1.82958854427890     -0.68866049179445     -0.00006162612755
  N   2.98194413581973     -0.00859585222881     -0.00009704540538
  C   2.88434539468419      1.32672211518494     -0.00008135274969
  N   1.79046717452957      2.10068118919499     -0.00003048200147
  C   0.61379536274790      1.46484523176461      0.00000734448954
  N   -0.56156479021681      2.11744413231436      0.00004081676605
  C   -1.73492494189062      1.45766841844772      0.00011943943310
  C   -2.97954445347657      2.29741534583739      0.00052380079669
  H   -3.59386421741836      2.07352911478588      0.88916487428535
  H   -2.71747301043675      3.36245404025906     -0.00338847700447
  H   -3.59878919439184      2.06774289480266     -0.88315007755831
  H   3.83808548122572      1.86562606895763     -0.00011142673415
  N   1.78031152981539     -2.03269144413567     -0.00005971627135
  C   0.59856853065247     -2.66941193870952     -0.00002111252027
  C   -0.63705551819895     -2.00339766554497      0.00000914350617
  C   -2.06117418934118     -2.25818086526893      0.00007697371156
  H   -2.52745640748535     -3.24234184089089      0.00009183718835
  H   0.66111315545950     -3.76380404860767     -0.00001952516556
