25
Coordinates from ORCA-job ./opt_b3lyp_cdz
  H   -4.66778223769699     -0.98183672453219     -0.00019773233722
  C   -3.72814089259727     -0.43096760009686     -0.00016466297695
  C   -2.40184795148006     -1.02878844136624     -0.00033079175631
  C   -1.52669485233667      0.06933208549861     -0.00021463346723
  N   -0.18631498440665     -0.04859316707096     -0.00026928239078
  C   0.59839946683984      1.12034858350852     -0.00016082767241
  N   1.91962342433136      0.98690908246248     -0.00034633013622
  C   2.40481268397123     -0.27554451944092     -0.00042669905365
  N   3.74866562942408     -0.43052491247616     -0.00011885009361
  C   4.72578883554717      0.63942034587412     -0.00171489397924
  H   5.36419134293008      0.59119829192558     -0.90085878053749
  H   5.37387274742584      0.58385880859181      0.88992981135584
  H   4.18972796990637      1.59581750639954      0.00484756848330
  H   4.05589256727843     -1.39655058168900     -0.00126712820491
  N   1.70362575402008     -1.43968432835525     -0.00053460680831
  C   0.38259070059084     -1.33956550257397     -0.00047197261583
  N   -0.42505334208318     -2.42337267405135     -0.00060912395130
  C   -1.75723481587826     -2.27706506210082     -0.00053385903796
  H   -2.32544752859562     -3.21505868767459     -0.00064179871249
  N   -0.00349210284792      2.32832417795674      0.00006553021527
  C   -1.34226462110612      2.41974517043942      0.00015780503487
  C   -2.19572688855470      1.30555047893937      0.00000893850529
  C   -3.60638118473555      0.95050207998593      0.00003263412439
  H   -4.43469698739343      1.65769094854845      0.00018032753002
  H   -1.73552460675297      3.44337612359772      0.00035781358295
