22
Coordinates from ORCA-job ./opt_b3lyp_cdz
  H   -4.62297780658489     -1.05869713274410     -0.00016986024978
  C   -3.69115180696519     -0.49511151668955     -0.00014975065600
  C   -2.36345133047140     -1.07007012876062     -0.00013342449465
  C   -1.50213133863769      0.04767404715840     -0.00010833249539
  N   -0.16760223154941     -0.04808526633963     -0.00008693363531
  C   0.59783005101217      1.14058155219251     -0.00006396324689
  N   1.92607056742083      1.02047881832826     -0.00004253647459
  C   2.41469495267286     -0.22747675217993     -0.00004507852830
  C   3.91989608252020     -0.38566612531732     -0.00002246867315
  O   4.69579491667982      0.53686401672174      0.00000581351519
  H   4.23395378188303     -1.45765465565052     -0.00002066403724
  N   1.75178422114739     -1.39491929160321     -0.00006676009592
  C   0.41654055448126     -1.33111867221854     -0.00008874165608
  N   -0.36353462516213     -2.42492283562287     -0.00011270286263
  C   -1.70098912725917     -2.30778602707958     -0.00013494776827
  H   -2.25096329712939     -3.25564705635837     -0.00015224273674
  N   -0.02399952526247      2.33343618119252     -0.00006510873409
  C   -1.36268377602587      2.40650291096864     -0.00008758346103
  C   -2.19526158240722      1.27435967605366     -0.00011010462711
  C   -3.59140913791170      0.89343315232410     -0.00013734269212
  H   -4.43358897428112      1.58394741876941     -0.00014594420254
  H   -1.77321946986992      3.42269543945499     -0.00008606478734
