23
Coordinates from ORCA-job ./opt_b3lyp_cdz
  S   -3.94592043764098     -0.15468847944435     -0.00003967059017
  C   -2.17057899119133     -0.04337043291259     -0.00002557728032
  C   -1.49054491601021      1.17146593526995     -0.00001917680947
  C   -0.07860314996817      1.21313631567410     -0.00000804084359
  C   0.62572115653516      2.43861507333380     -0.00000144754095
  C   2.01335749862112      2.46159056892400      0.00000934300297
  H   2.54126430110988      3.41858668213206      0.00001428425367
  C   2.73127238768146      1.27561450951772      0.00001387390659
  H   3.82053881113968      1.26318296813829      0.00002232531878
  C   2.06695279314812      0.02757549851055      0.00000768723183
  N   0.65229008218475      0.00387367659398     -0.00000335410116
  C   -0.03796686301237     -1.22965661062383     -0.00000977122109
  C   -1.44854463926880     -1.23512638837733     -0.00002089401270
  H   -1.94586448185369     -2.20412672261787     -0.00002566991471
  C   0.70868579627498     -2.43102709328845     -0.00000487976264
  H   0.15173423421478     -3.36721917041158     -0.00001000522790
  C   2.09512711733425     -2.40667186011597      0.00000596045359
  H   2.65548581428972     -3.34502095411516      0.00000959676977
  C   2.77286483020974     -1.19587488780714      0.00001220918476
  H   3.86107859402081     -1.14657667060167      0.00002074231974
  H   0.03768383949547      3.35565621873698     -0.00000521966939
  H   -2.01489833041060      2.12601738979559     -0.00002244933523
  H   -4.18895378618100      1.18070279476406     -0.00004123279613
