24
Coordinates from ORCA-job ./opt_b3lyp_cdz
  H   4.38982476147468      1.63658881883142      0.00011297879100
  C   3.55622234102897      0.93559590628713      0.00013225937532
  C   2.15314718911057      1.29945713345785      0.00011535776087
  C   1.47644235220558      0.06567870751994      0.00015363481128
  N   0.14050140552655     -0.04634535391604      0.00015311567004
  C   -0.43294985929781     -1.33195462479262      0.00018928554367
  N   -1.76370610224760     -1.41818230707722      0.00019701829911
  C   -2.45986045609752     -0.26255441147575      0.00018619317345
  C   -3.92436538852660     -0.41480799051291      0.00008242447723
  C   -4.78001561028566      0.61735063170526     -0.00000220555161
  H   -5.85992111790671      0.45297891372472     -0.00006314093081
  H   -4.40975810327111      1.64497665017004     -0.00000164206352
  H   -4.26935476899556     -1.45139769888846      0.00008675504022
  N   -1.96159956152003      0.99239792372782      0.00011632435863
  C   -0.63991561968025      1.12834904057359      0.00010790195526
  N   -0.03245254052815      2.33322414192587      0.00007161775384
  C   1.30478560138029      2.42036483894680      0.00007661599504
  H   1.70357948963111      3.44159709592605      0.00004213160845
  N   0.36266291690593     -2.41909805866534      0.00023047277303
  C   1.69746757952652     -2.28524557479786      0.00023527091232
  C   2.34864634071360     -1.04065991017704      0.00019239365462
  C   3.67216557238354     -0.45033245093057      0.00016859643173
  H   4.61020540514646     -1.00366933093961      0.00018431774684
  H   2.25844518102324     -3.22706790462309      0.00026155971400
