24
Coordinates from ORCA-job ./opt_b3lyp_cdz
  H   -4.50576300051920     -1.25637382447301     -0.00049179114412
  C   -3.46881392005435     -0.90338135025911     -0.00031767457080
  N   -3.31635573870913      0.42611340851275      0.00000499460092
  C   -2.05915818469962      0.88348359526757      0.00013048802231
  N   -1.01807545197059     -0.07104596525419     -0.00014837804480
  C   0.25274607342757      0.35864021977619     -0.00016597348940
  C   1.36833296230324     -0.49939919857689     -0.00031785846026
  C   2.52252205002662      0.40172334576859      0.00005006465295
  C   3.93950004025568      0.06769098923741     -0.00004908756075
  C   4.49291257664515     -1.15756353727886     -0.00231730531636
  H   5.57796452541229     -1.27846881302705     -0.00215164831355
  H   3.89881570333207     -2.07359897831624     -0.00456305511427
  H   4.60672275113262      0.93689755442366      0.00182394115089
  C   2.04262232303836      1.71942661190873      0.00040342217941
  C   0.60295567103705      1.72492667267903      0.00030349741024
  C   -0.48963136250801      2.60685098835556      0.00065788727067
  N   -1.76656385719988      2.19473581296704      0.00051153300567
  H   -0.35016213104321      3.69379809189206      0.00104959972436
  H   2.67909510121343      2.60380635457145      0.00071033967094
  C   1.03339491046986     -1.86490338797807     -0.00013706595562
  N   -0.22872878308347     -2.31787258759013     -0.00019038995053
  C   -1.26349624660285     -1.45890412371312     -0.00028646090058
  N   -2.53639676859390     -1.86581083266232     -0.00044015658280
  H   1.79675918449029     -2.64904794363105      0.00019578811545
