25
Coordinates from ORCA-job ./opt_b3lyp_cdz
  H   -2.34229608122857     -3.03075535610186     -0.00008459534704
  C   -1.38761234779684     -2.50455551565920     -0.00003775455002
  C   -1.20738204600142     -1.06761135113632     -0.00014904014129
  C   0.17455645394925     -0.88869910122837     -0.00004841451224
  N   0.79090768129216      0.31091916750667     -0.00012605990205
  C   2.19241165364800      0.35856498167834     -0.00002910021280
  N   2.77493642729421      1.56556402803228     -0.00013127435715
  C   1.94781915403041      2.61712983777298     -0.00033012435457
  N   0.60829768438789      2.65182480085858     -0.00043324688805
  C   -0.01570781215783      1.46591145533812     -0.00031687643850
  N   -1.34475421311732      1.35446952176890     -0.00033692336639
  C   -1.95885909991527      0.14825956347687     -0.00028820957601
  N   -3.31090460591884      0.13660085819908     -0.00050512264196
  C   -4.16300971666229      1.31405491269452      0.00011986432052
  H   -4.80356596968221      1.33390288672096      0.89812419503246
  H   -3.51854314993282      2.20059256966472     -0.00329279731691
  H   -4.80885437336563      1.33052289707741     -0.89409952013890
  H   -3.75414281104662     -0.77337801887392      0.00015355607774
  H   2.43825563244688      3.59715592197246     -0.00043345174059
  N   2.90628801644518     -0.78299700269997      0.00015134605923
  C   2.28139537323319     -1.97056023836123      0.00022766173982
  C   0.88529509531202     -2.11278407921032      0.00012480755861
  C   -0.14062081540211     -3.12703142198176      0.00010637045602
  H   0.02742801751595     -4.20274744660494      0.00020233899960
  H   2.94484692467265     -2.84351580430401      0.00035706194048
