21
Coordinates from ORCA-job ./opt_b3lyp_cdz
  H   3.05100646012107      2.25403406561397      0.00013685188074
  C   1.99432805739809      1.99305954935160      0.00007884334876
  C   1.46814900122375      0.64731323939625      0.00002697161737
  C   0.06572469915294      0.81386154187617     -0.00001349127874
  N   -0.80305870851765     -0.20484800166573     -0.00003139325831
  C   -2.18423229321646      0.08468590505002     -0.00007241575694
  N   -3.03159465628913     -0.94815193357192     -0.00008808395511
  C   -2.48532107218484     -2.17106557672282     -0.00006528359518
  N   -1.19234179298050     -2.52255740008092     -0.00002568331391
  C   -0.30497143866110     -1.52499959643252     -0.00000657672291
  N   1.02162997757742     -1.73798922085994      0.00002327201438
  C   1.87708921676204     -0.69964837402390      0.00003108157436
  C   3.28522595045512     -1.03186136322301      0.00013630421029
  N   4.42812145976659     -1.24657680133331      0.00035271481942
  H   -3.19698930501881     -3.00329435485961     -0.00007643396009
  N   -2.59793904489328      1.36494964553132     -0.00009193460272
  C   -1.71055144255330      2.36897995984794     -0.00007185957410
  C   -0.31888887736456      2.16613636349428     -0.00003565620764
  C   0.93466891244165      2.89415054452358     -0.00002461380619
  H   1.03413218964308      3.97856691406625     -0.00004494031525
  H   -2.14473693576214      3.37519095392231     -0.00010100421825
