28
Coordinates from ORCA-job ./opt_b3lyp_cdz
  H   -4.83505813210456     -1.32478759921678     -0.00001316885857
  C   -3.94747280978129     -0.69349665523503     -0.00000294484066
  C   -2.57344003965935     -1.17187969797153      0.00023449078043
  C   -1.79920929166808      0.00000083069945      0.00015625269403
  N   -0.45393120518354      0.00001142033526      0.00032681120591
  C   0.22771089486057      1.23166884928740      0.00021981040314
  N   1.55236575883791      1.21389653580535      0.00037597595068
  C   2.16101637839767      0.00003207980954      0.00057916090154
  N   3.52211169445518      0.00004180182260      0.00109661076098
  C   4.29408021626788      1.23286101961646     -0.00048867184474
  H   4.94424327020731      1.27424300476455      0.89194129545304
  H   3.61566245773354      2.09105532247842      0.00033714282567
  H   4.94146293950853      1.27390737085430     -0.89499722572255
  C   4.29409473207533     -1.23276903873786      0.00002728169448
  H   3.61570358274122     -2.09096709716263      0.00555368582016
  H   4.94737383193208     -1.27149185683208      0.89026544428992
  H   4.93834685215373     -1.27646550289034     -0.89664575192890
  N   1.55238511310465     -1.21384206656353      0.00055513351922
  C   0.22773032446572     -1.23163517099709      0.00053664934159
  N   -0.47880829227964     -2.38385676699039      0.00063647886250
  C   -1.81956677862770     -2.35707084291144      0.00049303958587
  H   -2.30126679588683     -3.34228177002115      0.00060210411698
  N   -0.47884592837944      2.38387933118764     -0.00005824927278
  C   -1.81960392804874      2.35707217342118     -0.00022091057119
  C   -2.57345849174560      1.17186906980506     -0.00011787614212
  C   -3.94748372644118      0.69346427648498     -0.00021716562569
  H   -4.83507896949475      1.32474125471453     -0.00042262451581
  H   -2.30131949814062      3.34227547264313     -0.00044034808315
