22
Coordinates from ORCA-job ./opt_b3lyp_cdz
  H   -4.82768232814352     -1.32392253444614      0.00099237925861
  C   -3.93852534987325     -0.69527049948815      0.00043274763622
  C   -2.57177561144675     -1.17566015479119      0.00096647928428
  C   -1.79340868484212      0.00000387910038     -0.00011843006457
  N   -0.45606527944972      0.00000061411256     -0.00005266688333
  C   0.21865481777133      1.23973366291522     -0.00098135987477
  N   1.55820106844663      1.20662782360130     -0.00039720544311
  C   2.09694889309841     -0.00000562440071      0.00009534093607
  N   3.62619464562965     -0.00000958703755      0.00019812492024
  O   4.16810658990089     -1.08986574218001     -0.01937193193284
  O   4.16810866431871      1.08985057201850      0.01950391625357
  N   1.55819512110919     -1.20663640131073      0.00050079324684
  C   0.21864853436130     -1.23973570121549      0.00093567613927
  N   -0.47925927444363     -2.38278436860811      0.00214673239511
  C   -1.82337063576093     -2.36238849269165      0.00219371857892
  H   -2.30268722139236     -3.34755829769253      0.00321450608123
  N   -0.47924724747186      2.38278578266115     -0.00226222604683
  C   -1.82335868895437      2.36239639808822     -0.00242989856617
  C   -2.57176961580123      1.17567174939089     -0.00127749142023
  C   -3.93852178276995      0.69528887302101     -0.00090163601403
  H   -4.82767551943816      1.32394538967422     -0.00156162007645
  H   -2.30267032894826      3.34756852407881     -0.00352526310805
