22
Coordinates from ORCA-job ./opt_b3lyp_cdz
  H   -4.48744507275481     -1.32700813632353      0.00005580168553
  C   -3.45669874408201     -0.95686941530356      0.00003269642649
  N   -3.32889113420639      0.38034749173967      0.00000886546961
  C   -2.08388357474378      0.85614790803701     -0.00001243101551
  N   -1.02836217875887     -0.07626798120912     -0.00000391508621
  C   0.23426080987417      0.37948330426355     -0.00002419448508
  C   1.35570145146829     -0.46036168247351     -0.00001960471609
  C   2.48528434035064      0.45597369238046     -0.00002154807602
  C   3.89037173576577      0.05197627633367      0.00001509350885
  O   4.25993711737086     -1.11015124753761      0.00005336227336
  H   4.62717435810968      0.89478655055106     -0.00002781184848
  C   2.00215656722372      1.77389969139927     -0.00010477604411
  C   0.56405257612398      1.75248742334474     -0.00005608356628
  C   -0.55005175058998      2.61603062313916     -0.00005288665911
  N   -1.81323024324901      2.17967787053643     -0.00003729504127
  H   -0.43163184126244      3.70572778885304     -0.00009303498389
  H   2.62750346485157      2.66645021054523     -0.00014623874699
  C   1.06425540992348     -1.83566721094319     -0.00000200425835
  N   -0.19102741471502     -2.30952200463651      0.00002278439824
  C   -1.24008246436046     -1.46888518844713      0.00002186665047
  N   -2.50863555018010     -1.89866895730619      0.00004127617490
  H   1.86463079144071     -2.58080966814295      0.00001371533994
