25
Coordinates from ORCA-job ./opt_b3lyp_cdz
  H   2.37795736548612      2.75023008555930     -0.01548279652635
  C   1.37157405778245      2.34117639995093     -0.01043536469015
  C   1.06501630800954      0.92704962637045      0.00676431679683
  C   -0.34676421403665      0.87600513488730      0.00750561742245
  N   -1.05182237579979     -0.26217854501515      0.02114040800612
  C   -2.46232476562784     -0.18858495314661      0.02031657685407
  N   -3.14026311172297     -1.34164263809248      0.03416747641735
  C   -2.41207283935995     -2.46462913019923      0.04761511809189
  N   -1.08024358068533     -2.61376650032959      0.04922392756193
  C   -0.35765959539305     -1.48952931460294      0.03565653424583
  N   0.98494788342865     -1.48838893808741      0.03537568060220
  C   1.68489527378360     -0.33854163695168      0.02162263038607
  C   3.19681530738394     -0.46651662437362      0.02294141038311
  O   3.87306912505866      0.54633082143333      0.01051888516772
  C   3.78551955627580     -1.85422098616351      0.03964601566382
  H   3.43169491803115     -2.40651075756894      0.92475721670040
  H   4.88033928532417     -1.78345819012167      0.03833658934233
  H   3.43111429367697     -2.42784216637042     -0.83156058904636
  H   -2.98738714664077     -3.39655938078412      0.05890371580915
  N   -3.06847709586108      1.00991744311147      0.00596647188836
  C   -2.34329360810310      2.13978286242316     -0.00773954434792
  C   -0.94011711012049      2.15366172242922     -0.00799662392273
  C   0.18529473833279      3.06701645071502     -0.01915976395561
  H   0.11399837907802      4.15377119100121     -0.03242404048797
  H   -2.92732303840087      3.06707794082595     -0.01891427206262
