21
Coordinates from ORCA-job ./opt_b3lyp_cdz
  H   -4.56180076688996     -1.05324530160902     -0.00001849106721
  C   -3.50696550108665     -0.75925333278572     -0.00001994920322
  N   -3.27973327287933      0.56292737556750     -0.00004262859820
  C   -2.00242041051039      0.94629618713075     -0.00004315620861
  N   -1.01848829014419     -0.06168904255757     -0.00002081469572
  C   0.27335012106909      0.30074789717287     -0.00001936513319
  C   1.33016835713999     -0.62190890696888     -0.00000530350935
  C   2.52166644509628      0.21200804163772     -0.00007608096565
  C   3.85975957321366     -0.27382265914995     -0.00012742641070
  N   4.94879185586644     -0.68948660386485     -0.00035712434321
  C   2.13963662535667      1.56238000152040      0.00001798642882
  C   0.70391768273091      1.64231965263372     -0.00003556634550
  C   -0.34284480665451      2.58720722399442     -0.00007230360889
  N   -1.63448477816767      2.24494281963708     -0.00006779301183
  H   -0.14331292832715      3.66477867236673     -0.00006809213015
  H   2.83311065176911      2.40102572896992      0.00004371905985
  C   0.93528087296871     -1.97118325292109      0.00002764094800
  N   -0.34890341030566     -2.35090595775853      0.00002283627471
  C   -1.33490122444912     -1.43399440415196     -0.00000077421554
  N   -2.62895926388426     -1.76918999695321      0.00000111539977
  H   1.66915046628802     -2.78445174261031      0.00001376123580
