22
Coordinates from ORCA-job ./opt_b3lyp_cdz
  Cl  3.90826303728788      0.00009647805127     -0.00012425614896
  C   2.15490394410437      0.00006104985116     -0.00008318095665
  C   1.47799797222378      1.20845990923491     -0.00006949118888
  C   0.06363090096095      1.22418078763525     -0.00003627287125
  C   -0.66095638788229      2.43630768711397     -0.00002121429932
  C   -2.04898646251731      2.43475173311497      0.00001120361042
  H   -2.59402408459785      3.38193801836247      0.00002240870013
  C   -2.74451802669396      1.23589407059637      0.00002937587334
  H   -3.83333471578339      1.20348058572035      0.00005483157738
  C   -2.05803180862362     -0.00002701040650      0.00001541709409
  N   -0.64380601371107      0.00000267091833     -0.00001768155736
  C   0.06368224708970     -1.22414568410340     -0.00003220019828
  C   1.47804740451378     -1.20836682856636     -0.00006524233733
  H   2.00544084586685     -2.15929724747249     -0.00007587832888
  C   -0.66085585397531     -2.43630341220831     -0.00001331300378
  H   -0.08827342883462     -3.36285841118910     -0.00002526732463
  C   -2.04888485520566     -2.43480500250332      0.00001922562959
  H   -2.59388368846571     -3.38201361013684      0.00003354807889
  C   -2.74446670565899     -1.23597521458933      0.00003358557901
  H   -3.83328471667290     -1.20360764227143      0.00005909640283
  H   -0.08841317195346      3.36288687209872     -0.00003606875413
  H   2.00535118420954      2.15941266945781     -0.00008354199283
