22
Coordinates from ORCA-job ./opt_b3lyp_cdz
  Cl  3.48799325135001      0.04765972089731      0.00009726214523
  C   1.80336413136115      0.55474590553392      0.00006283612170
  C   0.78463212014622     -0.44164817698380      0.00004554688382
  C   1.05763999497231     -1.82343070186981      0.00005450941746
  C   0.02142987444228     -2.75225009236837      0.00003607188149
  C   -1.29386324810673     -2.33082040437025      0.00000889038225
  C   -1.61237145619413     -0.95023744815920     -0.00000044678858
  C   -2.95086858104182     -0.50260881023756     -0.00002750192481
  C   -3.25106327021357      0.85278794365673     -0.00003647064780
  C   -2.22793007999409      1.78568994433396     -0.00001884102858
  C   -0.87251923312749      1.37955738315654      0.00000831209581
  C   0.18164206844088      2.31763167991835      0.00002610612292
  C   1.50501391043452      1.90601419234075      0.00005313612733
  H   2.31594690173720      2.63604529929005      0.00006682969869
  H   -0.08112369343331      3.37430699300936      0.00001800076224
  N   -0.56356744490614     -0.00051802062390      0.00001786852383
  H   -2.42648586720722      2.85680436050196     -0.00002532186724
  H   -4.29280023406973      1.18265652562241     -0.00005736746473
  H   -3.73067317000630     -1.26312961133255     -0.00004086227416
  H   -2.12530774583507     -3.03465696576864     -0.00000597213499
  H   0.25397119470872     -3.81996247190085      0.00004320393070
  H   2.09834951381656     -2.13289454161524      0.00007590656132
