25
Coordinates from ORCA-job ./opt_b3lyp_cdz
  H   -5.02115269643791     -1.38753538087771      0.28951852641230
  C   -4.00477248035082     -0.98860137286066      0.20347239616440
  N   -3.91903873127043      0.34558990888721      0.11010740882798
  C   -2.68882326416595      0.85581796919834      0.00709955615417
  N   -1.60677152505049     -0.04588927666326      0.00890408000017
  C   -0.36022940331073      0.44290281530453     -0.08389965983197
  C   0.78606857516499     -0.36811276973108     -0.09330917285040
  C   1.87396669494683      0.58380758947695     -0.20564956765831
  C   1.36706120820988      1.88168066494975     -0.28305260467296
  C   -0.07339413265638      1.81940475372713     -0.19539021403819
  C   -1.20953568239930      2.64903180980174     -0.19530569572496
  N   -2.45969788399091      2.17981487738953     -0.09509998297250
  H   -1.12532441565906      3.73873217156061     -0.27824058166580
  H   1.95962561964505      2.78841503643203     -0.39805641059398
  S   3.60374509436395      0.07153485783096     -0.34382077750046
  O   3.57642011236043     -1.44558704113046     -0.56894553800112
  C   4.05655385559669      0.30323922214644      1.43328342905748
  H   3.95698165068669      1.36405793469404      1.70786717910421
  H   3.39849774239945     -0.33559479987643      2.03928055934668
  H   5.10178583880531     -0.02669908481999      1.52387508078468
  C   0.53458612559144     -1.75320705112415     -0.01850292193851
  N   -0.70392733110680     -2.25413702018178      0.08087722849455
  C   -1.77732696255711     -1.44177079115984      0.10197877573322
  N   -3.02760800888873     -1.90400633469593      0.20515102817140
  H   1.35983383137377     -2.46890080537802     -0.04802767130200
