22
Coordinates from ORCA-job ./opt_b3lyp_cdz
  H   2.48155102203156      2.65318249856023     -0.00004531476617
  C   1.46215728443454      2.27910656254621     -0.00002306667896
  C   1.10545050331825      0.87794866156520     -0.00001848937761
  C   -0.31266255267948      0.87522772612145      0.00001132087006
  N   -1.06036856938987     -0.23539716908747      0.00002146732281
  C   -2.46746373512088     -0.10725235929992      0.00005997182224
  N   -3.18936001162279     -1.23243328150326      0.00007376916913
  C   -2.50909392382305     -2.38432154442923      0.00005210974621
  N   -1.18278527901162     -2.58472125418485      0.00001424209925
  C   -0.42012540169159     -1.49256703462831     -0.00000418373443
  N   0.92357470155157     -1.53803224333988     -0.00003627191809
  C   1.62893682813830     -0.42174545004299     -0.00004090827549
  N   3.12647422217734     -0.62057225871496     -0.00010347085662
  O   3.55252122622329     -1.75630849469715     -0.00029247961513
  O   3.79045208945795      0.41123520060306      0.00000234250626
  H   -3.12037746463023     -3.29268318076155      0.00006004134754
  N   -3.02674119202670      1.11429516664263      0.00008967117821
  C   -2.26009294805925      2.21410057583831      0.00008417920470
  C   -0.85551724478376      2.17286292279555      0.00004040244195
  C   0.30162254491217      3.04436092703078      0.00001869742198
  H   0.26967759022491      4.13291698680478      0.00003064629563
  H   -2.80652531203065      3.16389786118137      0.00010288759649
