23
Coordinates from ORCA-job ./opt_b3lyp_cdz
  H   1.93915110201684      2.89037837340542      0.00032888990152
  C   0.95498385405827      2.42939266199071      0.00027208758693
  C   0.70567730560265      1.00113576329074      0.00015510700175
  C   -0.70518785290969      0.89522158588946      0.00013284233460
  N   -1.36551150627276     -0.27016606091693      0.00006627546619
  C   -2.77688872149876     -0.25085544449208      0.00007401960556
  N   -3.41116382642746     -1.42724323792158      0.00000256093672
  C   -2.64141488804096     -2.52272940149599     -0.00006081462288
  N   -1.30506215699079     -2.62046480971923     -0.00005890367369
  C   -0.62619661823346     -1.47092597911343      0.00000660757339
  N   0.71542728159013     -1.41816623021768      0.00001338550938
  C   1.35531708698122     -0.24335658334144      0.00008125152338
  C   2.87389448611333     -0.36910199020849     -0.00020612790255
  F   3.46246820501043      0.84909573420428      0.00155634425044
  F   3.30534652392792     -1.02778705188603     -1.08832225943546
  F   3.30566739881417     -1.03112217398267      1.08569251430922
  H   -3.18090467715742     -3.47573328920039     -0.00012392057911
  N   -3.42909893533207      0.92524437657252      0.00015400909474
  C   -2.74927985028285      2.08035038155570      0.00022718208528
  C   -1.34557619628077      2.14732960698678      0.00021633412221
  C   -0.25834924543555      3.10524102201976      0.00028600905614
  H   -0.37281686949878      4.18823640438884      0.00035678310554
  H   -3.36746842515363      2.98528167919173      0.00029265945070
