25
Coordinates from ORCA-job ./opt_b3lyp_cdz
  H   4.86946485945282      1.06090116538010     -0.00024354505335
  C   3.81611992641755      0.76078607574155     -0.00012672922557
  N   3.59883121835513     -0.56429797144517     -0.00006330056629
  C   2.32389761449465     -0.95549079763204      0.00006520040502
  N   1.33360506828832      0.04604820815480      0.00011998593928
  C   0.04298057402951     -0.32295266251308      0.00025134070329
  C   -1.02109008116652      0.58877041831814      0.00031555777792
  C   -2.21251603286876     -0.24800385267533      0.00045200340373
  C   -3.58584035125374      0.29853003755061      0.00052874250730
  O   -3.76253099546243      1.51045258595361      0.00066239566914
  C   -4.75219406044463     -0.67178831610927      0.00082867937908
  H   -5.69194065238830     -0.10516753800198      0.00124292356885
  H   -4.71512862089046     -1.32472717632857      0.88878267859780
  H   -4.71575530056595     -1.32441380770011     -0.88738421753666
  C   -1.81548257485649     -1.59403452702809      0.00046978176968
  C   -0.37807468402777     -1.66998362156318      0.00033947802268
  C   0.67391037137361     -2.60628155275421      0.00027846334863
  N   1.96493247766777     -2.25689767922580      0.00014655961508
  H   0.48224592519425     -3.68555965019841      0.00033349433180
  H   -2.48930810495075     -2.44934734060835      0.00055994207165
  C   -0.63611723660271      1.94168790634733      0.00023016355278
  N   0.64862069738996      2.32968405628789      0.00009767767819
  C   1.63892904589079      1.42097728581875      0.00004123668155
  N   2.93359414702440      1.76456588797617     -0.00008727127132
  H   -1.38491694170027      2.73793077575462      0.00026138162970
