28
Coordinates from ORCA-job ./opt_b3lyp_cdz
  H   4.90093616427207      1.01311900991198      0.00722722457192
  C   3.84594843906467      0.71775331384754      0.00485181264533
  N   3.61585974880557     -0.59218495641319      0.01986179014393
  C   2.32675615723752     -0.97893534630044      0.01504096750133
  N   1.34290698527066      0.03854813921544     -0.00819273672477
  C   0.04986828218907     -0.31273747496978     -0.01898241098294
  C   -1.01367996497051      0.61459187832172     -0.03808141484651
  C   -2.22015879724801     -0.22591583582106     -0.04341844697111
  N   -3.51956809226400      0.22472287607232     -0.09602213638842
  C   -3.81792878721723      1.61986923948161      0.17800018127473
  H   -3.30063115606485      2.27828563290130     -0.53763413291503
  H   -3.53858501681739      1.93201804748285      1.20432184235622
  H   -4.89601939522350      1.78708924678119      0.05189507160025
  C   -4.58028914575334     -0.75339594150398      0.06934712570936
  H   -4.57244136443929     -1.22831706041180      1.07157686690057
  H   -4.48476811160205     -1.55323794575464     -0.68332645704966
  H   -5.55254239005132     -0.26476886558469     -0.07904483096820
  C   -1.82176710160498     -1.57678022074599     -0.00890800051646
  C   -0.38484787735525     -1.65448981374520     -0.00273637480905
  C   0.65118460788469     -2.59712433025558      0.02456936657327
  N   1.95672670726127     -2.26097512929659      0.03121052021833
  H   0.44776613963264     -3.67339796575674      0.04245056018230
  H   -2.49130810437648     -2.43189151462809      0.01283719272131
  C   -0.59045121825336      1.95676938005155     -0.03295105467432
  N   0.69403638724745      2.33225543261717     -0.02422948511780
  C   1.67878544786437      1.40990880638090     -0.01608512361587
  N   2.96745146509753      1.73965882459672     -0.01146265549384
  H   -1.30044738668599      2.78888896432545     -0.03167338712489
