23
Coordinates from ORCA-job ./opt_b3lyp_cdz
  H   5.19214998831082      1.32590132972541      0.02094142113655
  C   4.30359658168361      0.69633852968762      0.01391788650543
  C   2.93632733140255      1.17541040713667      0.00277291177934
  C   2.15866802672686      0.00002551176384     -0.00304122004680
  N   0.82002195832557     -0.00073996671484     -0.01314982354376
  C   0.14582743153305     -1.23945726540030     -0.01646217967583
  N   -1.19195406854110     -1.21082991960390     -0.02827882998403
  C   -1.75743760528539     -0.00232598302168     -0.03592867622634
  N   -1.19303914832831      1.20708354675284     -0.02940333746061
  C   0.14434649005225      1.23739605468002     -0.01781118049546
  N   0.84372552687903      2.38251998665453     -0.01191750761689
  C   2.18667373436979      2.36195674981472     -0.00198379880482
  H   2.66632430126396      3.34718544441928      0.00237574313246
  C   -3.28832350421949     -0.00016901966750      0.00060467961151
  F   -3.71246190042022      0.03853294173126      1.28343903584160
  F   -3.79822203002562     -1.10221352358788     -0.56727494155450
  F   -3.79431247323473      1.06929789010384     -0.63107636234962
  N   0.84621073168048     -2.38378725335337     -0.00907347673286
  C   2.18925610263365     -2.36189679319392      0.00100944318938
  C   2.93762223684779     -1.17464405388284      0.00426770586239
  C   4.30437364205049     -0.69414921922928      0.01483141429314
  H   5.19359343110244     -1.32275067901103      0.02269925413506
  H   2.66985110739253     -3.34664909060352      0.00676908760467
