40
Coordinates from ORCA-job ./opt_b3lyp_cdz
  N   -5.12639273260205     -1.25667199038522     -0.14385028649572
  C   -4.92294775071327      0.09404687728006     -0.03435228635719
  N   -5.94928902124048      0.98974196141860      0.02472258207951
  C   -5.45058653130388      2.29712260824972      0.04166699082529
  C   -4.08848025827299      2.22632044174648      0.00055443325124
  C   -3.70972146284308      0.82953935790680     -0.04126180456408
  C   -2.39975494765191      0.23833916189704     -0.03990105244248
  N   -2.36516954339407     -1.13377883122220     -0.04052370312834
  C   -1.22898953376019     -1.82653047398317     -0.03239120264230
  N   -1.21144638543792     -3.17199563515688     -0.02108863809444
  C   0.00000952816133     -3.74026675556373     -0.01543435117647
  N   1.21145745920566     -3.17198209853037     -0.02131631651681
  C   1.22898802337833     -1.82651834569812     -0.03253391256486
  N   2.36515697419885     -1.13375789988299     -0.04067143726524
  C   2.39974835533677      0.23838292281868     -0.03988389368907
  C   3.70967212274069      0.82961582617596     -0.04108598198863
  C   4.08845041756004      2.22636257126109      0.00203086377959
  C   5.45054045647751      2.29713962588248      0.04284859481630
  N   5.94929167981180      0.98974978416741      0.02493584668304
  C   4.92293353715134      0.09413107305979     -0.03517431135639
  N   5.12626795780417     -1.25644839789229     -0.14635480933860
  H   5.90475543731470     -1.64041500975515      0.38277068908017
  H   4.23683837636592     -1.75961982602081     -0.04398422176449
  H   6.92696273659214      0.73949638429426     -0.03682729187830
  H   6.12445059407117      3.14683855954382      0.09227979713993
  H   3.41739846335469      3.07792958351377      0.01669726215618
  C   1.17647485897381      0.97066859142602     -0.03099042465218
  C   -0.00000298854271      0.19659990257712     -0.03170728200756
  C   -1.17650215076636      0.97064984180039     -0.03099889191654
  C   -0.69588978581988      2.33363500379214     -0.02926858929954
  C   0.69584657612631      2.33364141924811     -0.02926912222584
  H   1.30728194800800      3.23245742810001     -0.03159956963401
  H   -1.30732747827509      3.23244700785590     -0.03145479964963
  N   -0.00000577462444     -1.15631075077745     -0.03334045834109
  H   0.00002034128890     -4.83666453013650     -0.00474204450738
  H   -3.41746832778768      3.07794070677337      0.01357777215072
  H   -6.12446693618613      3.14690851709823      0.08996016166785
  H   -6.92705865875067      0.73923143762310     -0.03426183770858
  H   -5.90398094951340     -1.64011679756808      0.38699349116925
  H   -4.23679042573589     -1.75965080263733     -0.04206882549333
