42
Coordinates from ORCA-job ./opt_b3lyp_cdz
  H   1.34013688945827      2.74297359473069      0.00497654168598
  C   0.69468992478608      1.87014575978012      0.00226455053830
  C   1.17685577605897      0.50450571496126      0.00353123304944
  C   0.00000822338933     -0.27540988743922     -0.00103872266760
  C   -1.17687840068043      0.50444975878004     -0.00506673194103
  C   -0.69478091708825      1.87011271884062     -0.00284746981433
  H   -1.34027146580185      2.74290998769682     -0.00495539235720
  C   -2.38122120926911     -0.23821293530099     -0.00991748113186
  N   -2.37153956250677     -1.59396005033157     -0.01044475174135
  C   -1.23569528715337     -2.29300772627769     -0.00638701512837
  N   0.00004177052784     -1.61830890024451     -0.00148491501768
  C   1.23581244102711     -2.29294909110069      0.00298714183861
  N   1.21172900367953     -3.63478658108726      0.00232455463638
  C   0.00010633858962     -4.20360674407987     -0.00233664087339
  N   -1.21154471861240     -3.63484412891394     -0.00661546128978
  H   0.00013375625883     -5.29969150859097     -0.00270103766162
  N   2.37162175292138     -1.59384751606555      0.00752221419468
  C   2.38123560068554     -0.23809984891917      0.00790335393979
  C   3.71969833624777      0.38800000592275      0.01292000571666
  C   4.88639049591745     -0.39883431335338      0.01885282881169
  C   6.12856935565389      0.22021841761351      0.02176013311335
  C   6.19689142657340      1.62597970122750      0.01882479539611
  N   7.40033920102723      2.30569870334428      0.07949083462634
  H   7.38569397035314      3.27077973047282     -0.23457406856552
  H   8.21867974804148      1.80092517972621     -0.24499485706284
  C   4.96545738616794      2.32401790188527      0.01158249475161
  N   3.77672840981135      1.73566974289190      0.00881425813774
  H   4.97002424641431      3.42137457083391      0.00867771586506
  H   7.04613431902296     -0.37503960246439      0.02778695648504
  H   4.78714232859847     -1.48387553517001      0.01864999038507
  C   -3.71971531015818      0.38782338828684     -0.01448962905345
  N   -3.77681255411390      1.73548721395226     -0.00947784714110
  C   -4.96557093245764      2.32377780312384     -0.01183662281636
  C   -6.19697021977879      1.62568318795041     -0.01953447383908
  N   -7.40045266285760      2.30538219754240     -0.07973399224874
  H   -8.21876436047072      1.80035195180257      0.24442483171244
  H   -7.38585247087474      3.27025476154274      0.23497288774104
  C   -6.12857814122080      0.21992757648464     -0.02341224273992
  C   -4.88636835610973     -0.39906496954172     -0.02093429405898
  H   -4.78706598207948     -1.48410115383517     -0.02145920052410
  H   -7.04611351636488     -0.37537199156288     -0.02982689576424
  H   -4.97019262591331      3.42113203258557     -0.00819366388682
