34
Coordinates from ORCA-job ./opt_b3lyp_cdz
  O   -3.78331482208027     -2.00694777587773      0.00018368349810
  C   -3.69140461674025     -0.63730773685968      0.00030587744799
  C   -4.95329464386892     -0.08630308349046      0.00036960459836
  C   -5.86987532814880     -1.17869758161038      0.00029948649904
  C   -5.10463008917504     -2.31529029702646      0.00017750410363
  H   -5.34285186082227     -3.37500927105474      0.00008671522468
  H   -6.95603524036869     -1.13328370683440      0.00032735539016
  H   -5.16465337523278      0.97882875751675      0.00046485279944
  C   -2.37499547558523     -0.03310884804578      0.00034130307698
  N   -2.37585041066919      1.32204606606481      0.00045175938821
  C   -1.23667998724686      2.01820038924380      0.00049106125395
  N   -1.21166582677864      3.35898215440791      0.00060233987057
  C   -0.00000972188765      3.92795747067572      0.00063264910020
  N   1.21164939695620      3.35898855098181      0.00056953838804
  C   1.23667062552656      2.01820689968411      0.00045845935924
  N   -0.00000289551387      1.34365482982725      0.00041634718238
  C   0.00000068673763     -0.00084137851345      0.00030372496434
  C   1.17293843781675     -0.78103554560156      0.00022635985115
  C   0.69529862206201     -2.14704696050047      0.00013506541000
  C   -0.69528595426142     -2.14705061100831      0.00012726320805
  C   -1.17293295093189     -0.78104170817119      0.00025570974532
  H   -1.33013000398980     -3.02939598288381      0.00005455938434
  H   1.33014726215048     -3.02938902803925      0.00006471914702
  C   2.37499701638933     -0.03309632579726      0.00027269103429
  C   3.69140933003630     -0.63728834766675      0.00021886029416
  C   4.95329653154590     -0.08627719381740      0.00026178550737
  C   5.86988282601469     -1.17866695480139      0.00014243397968
  C   5.10464347260279     -2.31526363792261      0.00008079187089
  O   3.78332661493824     -2.00692792418928      0.00011527187330
  H   5.34287076999078     -3.37498137605328     -0.00000226104231
  H   6.95604250906166     -1.13324744917448      0.00012244151440
  H   5.16464987854316      0.97885572766931      0.00034864858066
  N   2.37584474089524      1.32205858500549      0.00038683935763
  H   -0.00001261816617      5.02383749406318      0.00072158663867
