46
Coordinates from ORCA-job ./opt_b3lyp_cdz
  H   -1.33882194394733     -2.80533532426439      0.00533327211448
  C   -0.69516159140500     -1.93208422955321      0.00291106118365
  C   -1.17832033713448     -0.56889864882270      0.00525971820475
  C   -0.00004734462191      0.20884501126158      0.00149109575929
  N   -0.00004152330338      1.55711216208368      0.00234883588127
  C   1.22750205934630      2.23035390176239     -0.00124793415820
  N   1.21065710228109      3.57422356961646     -0.00092171936460
  C   -0.00003286459040      4.14484451147365      0.00394589121713
  N   -1.21072693456669      3.57422445491654      0.00811365799740
  C   -1.22758019799676      2.23035604749713      0.00678231134928
  N   -2.36257156583356      1.53290049616393      0.00894385613299
  C   -2.39644800143780      0.16522652983662      0.00794520001241
  C   -3.71527992065805     -0.46914446457458      0.01265271044514
  N   -3.70999754116924     -1.82193467341773      0.02610572825440
  C   -4.83132767046410     -2.50898782312866      0.04032288424397
  C   -6.11482697805028     -1.89278746811271      0.04110246606217
  N   -7.25847749007495     -2.66903629990558      0.11554028718498
  H   -8.11732361459150     -2.23618660062614     -0.20834950476805
  H   -7.16122378059662     -3.62744080890339     -0.20437008854559
  C   -6.15479004064107     -0.50269987007411      0.02200003689464
  C   -4.96217344986182      0.25668400034284      0.00706996645019
  N   -5.02227742213125      1.60977711800990     -0.02518026703974
  H   -4.13523898442374      2.11780777677809      0.00408230701151
  H   -5.91692670850179      2.07492071893664      0.03512522778226
  H   -7.11583603201613      0.02122573587206      0.01978070209047
  H   -4.75210479822310     -3.60283731203703      0.05545094553546
  H   -0.00002992843457      5.24094114643717      0.00462139819692
  N   2.36248799293474      1.53289373644853     -0.00427004229269
  C   2.39635082564961      0.16522223616027     -0.00500905893915
  C   1.17822303809589     -0.56890219286780     -0.00328577117226
  C   0.69505468484616     -1.93208627156506     -0.00269354600826
  H   1.33870751071343     -2.80533848152954     -0.00624937571344
  C   3.71518975315601     -0.46913722842820     -0.01051475400002
  N   3.70992441286288     -1.82190552993078     -0.02599638928671
  C   4.83126807870643     -2.50891671579537     -0.04129279677917
  C   6.11475450670997     -1.89269458686214     -0.04123707385068
  N   7.25841720235964     -2.66880222738594     -0.11696484069308
  H   7.16120935975517     -3.62769950446803      0.20148081265971
  H   8.11727532098002     -2.23643281975427      0.20753525387767
  C   6.15468898023831     -0.50263460510637     -0.01999887418505
  C   4.96206207831343      0.25669769329081     -0.00378436754112
  N   5.02214736677525      1.60975535044592      0.03089801409382
  H   5.91671689412419      2.07497545845545     -0.03011109191989
  H   4.13510600113407      2.11777389694494      0.00143315545568
  H   7.11572372721333      0.02130772050001     -0.01699855350634
  H   4.75206218197956     -3.60274354282084     -0.05807024392765
