38
Coordinates from ORCA-job ./opt_b3lyp_cdz
  N   -5.07360562598077     -1.48497586164403      0.06653547945551
  C   -4.94612763992056     -0.13784129296752      0.01255546705818
  C   -3.71259001164974      0.55697614035962      0.00681937112453
  C   -2.39854772755516     -0.01950035239931      0.00576466496647
  N   -2.36518471591482     -1.39112278111742      0.00626853102293
  C   -1.22803138130586     -2.08355626583723      0.00130883004232
  N   0.00002966086303     -1.41243841365507     -0.00143109842396
  C   0.00006754720829     -0.05999320787638     -0.00108400149928
  C   1.17546923098432      0.71528816348427     -0.00284546936103
  C   0.69639823928175      2.07824274485845     -0.00190395129476
  C   -0.69617071767153      2.07828001948062      0.00065120552273
  C   -1.17530800899545      0.71534896105887      0.00101017378008
  H   -1.31024269918724      2.97562121630283      0.00261590173686
  H   1.31051864305016      2.97555261979977     -0.00344215574454
  C   2.39868845007856     -0.01961095885998     -0.00796303937754
  C   3.71273384367272      0.55678596309309     -0.00878736239525
  C   4.94623375991878     -0.13814232328763     -0.01484979677968
  N   5.07351721373236     -1.48522270477603     -0.06849861052621
  H   5.97862681213024     -1.91076227173687      0.07291103158861
  H   4.20754303843855     -2.02482354531168     -0.00967286465495
  C   6.07154858365838      0.75650435770448      0.01744683207382
  C   5.70892751103648      2.07300353275715      0.04055272380593
  S   3.99540188905597      2.30761098096561      0.02453610303311
  H   6.37023102995680      2.93772601688462      0.06349060035565
  H   7.10659869434975      0.41196672927260      0.01794466932110
  N   2.36524779880103     -1.39124454438859     -0.00916734555958
  C   1.22805904361672     -2.08361781163040     -0.00458819534827
  N   1.21099262144537     -3.42817514013154     -0.00339001739647
  C   -0.00003745200370     -3.99766424980322     -0.00220793761517
  N   -1.21103623465722     -3.42811368456146     -0.00069167815832
  H   -0.00006544436883     -5.09387383859718     -0.00253232748927
  S   -3.99510306332445      2.30782317265173     -0.02622591860954
  C   -5.70864238279811      2.07336872436203     -0.04278754764987
  C   -6.07135852069522      0.75688744660462     -0.01995722984886
  H   -7.10643198866866      0.41242094145698     -0.02070304972450
  H   -6.36986776049220      2.93814996012206     -0.06574746841295
  H   -4.20765115931139     -2.02448883466434      0.00639535506260
  H   -5.97838825067834     -1.91024602287351     -0.07795686948043
