38
Coordinates from ORCA-job ./opt_b3lyp_cdz
  N   -5.20902993225459     -1.19425471012104     -0.09325076528088
  C   -4.95018502874294      0.13895806790909     -0.00942206885401
  C   -5.89516140005650      1.22010133515090      0.04242694342008
  C   -5.15487593092379      2.36901855134126      0.05488558703692
  O   -3.83045569791995      2.11840503814627      0.01771500113833
  C   -3.68362147134870      0.73896792487537     -0.01432610754018
  C   -2.38258311393202      0.16176411315990     -0.01247515976859
  C   -1.17023857305313      0.90196320628381     -0.00398429816373
  C   -0.00009510180570      0.12280044680110     -0.00137445394162
  N   -0.00006287817553     -1.22986597779338     -0.00155166116411
  C   1.23168884651642     -1.90166498107523      0.00119765362954
  N   1.21182295050354     -3.24624349694873     -0.00255120140130
  C   -0.00000201278435     -3.81407442863012     -0.00188267114903
  N   -1.21185393925242     -3.24630076325545     -0.00105130956451
  C   -1.23178331187193     -1.90172226606507     -0.00443890313846
  N   -2.37010192608204     -1.20944956264114     -0.01150335812199
  H   0.00002370734645     -4.91040995819925     -0.00203914654487
  N   2.36997461606016     -1.20934035582904      0.00848848759173
  C   2.38239032945195      0.16187274740562      0.00984321266214
  C   3.68340279435280      0.73913882754540      0.01192347435374
  C   4.94999504890943      0.13919409233096      0.00692818985040
  N   5.20890897082927     -1.19403159819192      0.09043363897218
  H   6.10840325551612     -1.53113903830713     -0.22753773543388
  H   4.39153335559397     -1.79468285159314     -0.02519192864750
  C   5.89492041462854      1.22039756084266     -0.04458623114204
  C   5.15457910457464      2.36928140981121     -0.05678579307955
  O   3.83016901420599      2.11859095737857     -0.01975056769184
  H   5.43770280680251      3.41815771714680     -0.08702519711026
  H   6.97951439528563      1.14608677854934     -0.06037213821786
  C   1.17001267742981      0.90201766142570      0.00148888313215
  C   0.69622824620104      2.26727935363607      0.00045066795457
  C   -0.69651829561174      2.26724677032490     -0.00251249485340
  H   -1.33304043011757      3.14877364409315     -0.00386876993624
  H   1.33270882584553      3.14883573887692      0.00207508132209
  H   -5.43805192709709      3.41787236920604      0.08541499956849
  H   -6.97975089648489      1.14573396144536      0.05825329119589
  H   -4.39162121951750     -1.79490549379322      0.02213236217330
  H   -6.10851762022149     -1.53150252274255      0.22458365424436
