20
Coordinates from ORCA-job ./opt_b3lyp_cdz
  C   1.54777500297334     -8.81702710753715     -5.50715189458164
  C   0.18268285598556     -9.07400024361404     -5.51403206644484
  C   -0.73238076930523     -8.08215631518510     -5.10972830603638
  C   -2.13428157867072     -8.26960278457215     -5.08974337497069
  C   -2.93927852240722     -7.22894680395619     -4.67499873646947
  N   -2.49060784697089     -6.03100222657045     -4.28187163738089
  C   -1.17049472766239     -5.80666824097170     -4.28386806087566
  N   -0.73350921590681     -4.60432907827230     -3.88833202264283
  C   0.58378699728625     -4.36841957985461     -3.88585013653918
  C   1.54422011545696     -5.28292055522569     -4.26561299950020
  C   1.13308173857686     -6.56755545564362     -4.69170541959913
  C   2.02572641918582     -7.57762703622830     -5.10097742008154
  N   -0.24683010269326     -6.82960337332627     -4.69952638579513
  H   2.24892242344206     -9.59349252091325     -5.82272298465178
  H   -0.21939915529515    -10.03679726170967     -5.82763948004683
  H   -2.54090674060414     -9.23054183721923     -5.40229030245351
  H   -4.02816986207537     -7.35431887314198     -4.65232112114268
  H   0.88201627417744     -3.36747855808512     -3.55254183729598
  H   2.60812149336999     -5.04999929250090     -4.24873624535768
  H   3.09088520113690     -7.34910285547225     -5.08573956813398
