38
Coordinates from ORCA-job ./opt_b3lyp_cdz
  C   6.76190957391166      1.25487092328998      0.03751850238010
  N   6.03026997856795     -0.00006539901331      0.02595312804585
  C   4.65264500024818     -0.00005758857676      0.02312086228223
  C   3.91399962869001      1.21453744846694      0.02138199773977
  C   2.52719635877502      1.20654898897352      0.01706507869077
  C   1.79938125375532     -0.00005090487551      0.01485733141303
  C   0.33188743469853     -0.00004656927115      0.01056498103481
  N   -0.28007367000554      1.20821304413109      0.00871199598888
  C   -1.60700106202973      1.23225980295609      0.00495940186482
  N   -2.28879766101860     -0.00003781091039      0.00315095719000
  C   -3.63094090206854     -0.00003329265863     -0.00064220046268
  C   -4.40678519481894     -1.17344670932009     -0.00281301471966
  C   -5.77631956474943     -0.69512229395446     -0.00678487142094
  C   -5.77631470087413      0.69506997195388     -0.00686475080804
  C   -4.40677698880045      1.17338528852678     -0.00295041923558
  C   -3.65247843754687      2.35990756461265     -0.00093380116310
  N   -2.31289663327994      2.38477969391255      0.00286430797113
  H   -4.13451254371142      3.34486875008154     -0.00239942033470
  H   -6.66501108512085      1.32483806519036     -0.00944982331395
  H   -6.66502040512263     -1.32488439173733     -0.00929932353413
  C   -3.65249498776049     -2.35997400923988     -0.00065704859802
  N   -2.31291336556227     -2.38485510622707      0.00316026482418
  C   -1.60700968421740     -1.23233996369858      0.00512646906442
  N   -0.28008208098736     -1.20830210726776      0.00889996579021
  H   -4.13453598561139     -3.34493197538254     -0.00202105323078
  C   2.52718944934580     -1.20665441891358      0.01745261749009
  C   3.91399252048894     -1.21464907804992      0.02179869187102
  H   4.43059981542353     -2.17346755507009      0.02414685612859
  H   1.97556464308889     -2.14726516546597      0.01627808083504
  H   1.97557665844781      2.14716239226280      0.01567705229460
  H   4.43061084176235      2.17335404624886      0.02361780358979
  C   6.76188316885815     -1.25499042832412      0.04023689520514
  H   6.53600491250319     -1.87491258215776     -0.84674637524319
  H   7.83893892439529     -1.04477689175816      0.03932898445438
  H   6.53335150610641     -1.85817488012252      0.93838517607302
  H   6.53573278083109      1.85887261636149      0.93575067523616
  H   6.53369721468775      1.87397948363583     -0.84939725044115
  H   7.83896119840004      1.04466282579119      0.03388827594793
