42
Coordinates from ORCA-job ./opt_b3lyp_cdz
  C   -5.75358060554988     -0.68542011579907     -0.09935179125718
  C   -4.38099889687723     -1.15931253647415     -0.16882965533541
  C   -3.60608976340058      0.00073676457483      0.00086114150534
  C   -4.38047604604751      1.16112036035930      0.17065603465779
  C   -5.75327138334219      0.68781974162712      0.10136204766230
  H   -6.64131778962957      1.31182348086638      0.19246326978009
  C   -3.62600886423166      2.33390178494056      0.34074009651131
  N   -2.28508160041816      2.35883381048380      0.34384184477106
  C   -1.57995792818710      1.21928074705866      0.17876596776387
  N   -0.25325446994679      1.19808765323910      0.18147852117127
  C   0.34486478373665     -0.00011582801310      0.00060499453981
  N   1.72428107363837     -0.00041371543309      0.00045750835656
  C   2.47858962601649      1.22617874737136      0.04426474532408
  C   3.43913643862298      1.39653080767638      1.04944306863944
  C   4.21693732810585      2.55653633267110      1.08441506315700
  C   4.03784952820725      3.55379708730841      0.12151377837151
  C   3.07736484129763      3.38156348676888     -0.88095255290440
  C   2.30171928363189      2.22181916399946     -0.92577701985730
  H   1.55133368691955      2.08939491206291     -1.70529881773659
  H   2.93109008175978      4.15476235873057     -1.63885503029740
  H   4.64443902389281      4.46186373676097      0.15089654604296
  H   4.96276728021148      2.68124966691936      1.87300928522191
  H   3.57638898405243      0.61514490860232      1.79907124956535
  C   2.47799857601013     -1.22737424904202     -0.04350758289133
  C   2.30114047245457     -2.22274007826334      0.92681388459135
  C   3.07622137294519     -3.38285626787832      0.88183191728075
  C   4.03612468680522     -3.55572666482098     -0.12108220029634
  C   4.21520425199719     -2.55873598919435     -1.08426512866931
  C   3.43796376335398     -1.39835874641948     -1.04912842838473
  H   3.57520402018985     -0.61717391065826     -1.79896958043856
  H   4.96058546843998     -2.68395429613026     -1.87320345496830
  H   4.64227520337832     -4.46408243774203     -0.15059308247682
  H   2.92996484745445     -4.15584449395173      1.63995251694687
  H   1.55120225739466     -2.08980040633012      1.70668046526093
  N   -0.25379535462381     -1.19805865530107     -0.18022140969814
  C   -1.58050649785312     -1.21867865968708     -0.17733568848965
  N   -2.26212616034546      0.00044751395346      0.00076768297988
  N   -2.28614481208197     -2.35792765985141     -0.34231507772557
  C   -3.62706036149665     -2.33241840122891     -0.33902204283089
  H   -4.10831827808723     -3.30755577796977     -0.48027003940391
  H   -4.10682681820807      3.30924746829576      0.48204777575250
  H   -6.64190829138960     -1.30904088488194     -0.19033341349213
