32
Coordinates from ORCA-job ./opt_b3lyp_cdz
  N   -6.69826566675527     -0.00008820417466     -0.08466482828286
  C   -5.31498886968756     -0.00010570827950     -0.02573787080685
  C   -4.59162706196918      1.21342477057608     -0.02393440058660
  C   -3.20405519561149      1.20991154841600     -0.02024536512548
  C   -2.48054826742387     -0.00014222063770     -0.01810386959543
  C   -1.01071547039168     -0.00016113072065     -0.01184332526131
  N   -0.39998799953505      1.20767875047318     -0.00915649668399
  C   0.92753308426159      1.23224381722748     -0.00419158010613
  N   1.60900968003769     -0.00019485808507     -0.00197388607297
  C   2.95091201219201     -0.00021214035846      0.00285011611487
  C   3.72683083335333     -1.17377745127343      0.00580430219118
  C   5.09621939192263     -0.69536356132313      0.01080337472401
  C   5.09623741628690      0.69488378658732      0.01079598080458
  C   3.72686122576619      1.17333311051811      0.00579205008233
  C   2.97273701699394      2.35978915845613      0.00349132210371
  N   1.63286883125768      2.38431230834047     -0.00120915903649
  H   3.45458494566897      3.34476818312746      0.00554353630052
  H   5.98517917031181      1.32426567466330      0.01403956761628
  H   5.98514489028666     -1.32476838932541      0.01405360982147
  C   2.97267603876028     -2.36021405125495      0.00351585524889
  N   1.63280720317917     -2.38470269316626     -0.00118438839853
  C   0.92750126616282     -1.23261597705606     -0.00417874908492
  N   -0.40001917705739     -1.20801670045513     -0.00914389295279
  H   3.45449858370603     -3.34520546297787      0.00557835328701
  C   -3.20408637539153     -1.21017736895614     -0.02023240135707
  C   -4.59165833489552     -1.21365483671857     -0.02392136792631
  H   -5.13506705312323     -2.16277613701081     -0.02732855785203
  H   -2.64946172548648     -2.14886716010492     -0.01638701691918
  H   -2.64940616581713      2.14858696061313     -0.01640998303317
  H   -5.13501136234610      2.16256001836021     -0.02735189709726
  H   -7.16218818820494     -0.84553330995162      0.23023860206718
  H   -7.16216650315125      0.84537199837152      0.23023001371732
