32
Coordinates from ORCA-job ./opt_b3lyp_cdz
  C   -5.66825991437285     -0.69729254196016      0.00010485104158
  C   -4.30079042685122     -1.17563200735707      0.00039608112425
  C   -3.52341569068065     -0.00130213207425     -0.00025113934827
  C   -4.30122003435590      1.17274454484748     -0.00090629468707
  C   -5.66851464456045      0.69390618598560     -0.00066822026410
  H   -6.55759190861718      1.32298267606259     -0.00103051583480
  C   -3.54961432389165      2.36023117386286     -0.00153833274605
  N   -2.20942304298572      2.38410006392642     -0.00152285278021
  C   -1.50460474101894      1.23484544512893     -0.00089107174517
  N   -0.17338806805178      1.21399958560581     -0.00086974729513
  C   0.41875107148865     -0.00057733538472     -0.00030769798573
  C   1.84978684873125     -0.00034857565355      0.00001976864769
  C   3.06955821159162     -0.00038256807375     -0.00036064708749
  C   4.49574602858853     -0.00062473045433     -0.00037042208744
  C   5.21032197747162      1.21694943619161     -0.00095280583593
  C   6.60446326205421      1.21113790690571     -0.00093131803162
  C   7.30438811157766     -0.00119360992493     -0.00034321189485
  C   6.60397276890256     -1.21324351477302      0.00022604500648
  C   5.20983109497036     -1.21849309459322      0.00021141684428
  H   4.65610612421051     -2.15905105564787      0.00065366259013
  H   7.14866653588913     -2.16020111135336      0.00068435275893
  H   8.39697525736128     -0.00141476909617     -0.00032962464627
  H   7.14953876208440      2.15787569305136     -0.00137626849447
  H   4.65698814332717      2.15773807995515     -0.00140995865642
  N   -0.17294212227071     -1.21537610887594      0.00046621962306
  C   -1.50414939188993     -1.23670822373758      0.00047255983875
  N   -2.18316799575623     -0.00105495991387     -0.00023509156527
  N   -2.20854830801641     -2.38622139439330      0.00111428984777
  C   -3.54874650760530     -2.36284512881233      0.00107740812205
  H   -4.03044643228523     -3.34759522922469      0.00162821446408
  H   -4.03167597931910      3.34480413278875     -0.00208069193184
  H   -6.55710696381968     -1.32669434550813      0.00044145120907
