34
Coordinates from ORCA-job ./opt_b3lyp_cdz
  N   2.72238435704413      2.46528300373544     -0.02552411094245
  C   3.31825709351849      1.24439250701009     -0.02706744603338
  C   4.72911713823605      1.21010875441841     -0.03184408487705
  C   5.40947924527156     -0.00002664583554     -0.03405997478113
  C   4.72909521144574     -1.21014987375175     -0.03168307014594
  C   3.31823555567970     -1.24440530600493     -0.02684629302131
  N   2.72233629150921     -2.46528191465766     -0.02473438532686
  H   1.70620917351458     -2.51968384618370     -0.02083901825488
  H   3.30708192806342     -3.28841213830107     -0.02618618766128
  C   2.55761319094935     -0.00000065035917     -0.02425383797271
  C   1.10349467379787      0.00000277470891     -0.01899859161705
  N   0.44435613278700      1.19873632056046     -0.01634187310078
  C   -0.87929001986234      1.22469363944094     -0.01142672991429
  N   -1.56287194359627     -0.00000098266537     -0.00909733016750
  C   -2.90588449862730     -0.00000301895789     -0.00407323582403
  C   -3.67862509455386     -1.17335321225031     -0.00154571910075
  C   -5.05080207697309     -0.69434542533992      0.00350547880534
  C   -5.05080289010697      0.69433353216813      0.00384287766518
  C   -3.67862643102020      1.17334519475179     -0.00097406765842
  C   -2.92167029473905      2.35812219328803     -0.00358680784017
  N   -1.58047431390559      2.38086747471999     -0.00858747621703
  H   -3.40087211713715      3.34424321455516     -0.00170844451222
  H   -5.93956421413356      1.32389050802873      0.00721988859528
  H   -5.93956264615293     -1.32390503338775      0.00657607200188
  C   -2.92166756564758     -2.35812812095536     -0.00473783206584
  N   -1.58047178745941     -2.38086957568657     -0.00974337811468
  C   -0.87928822871161     -1.22469371299685     -0.01201204403925
  N   0.44435757122879     -1.19873266726895     -0.01690108088734
  H   -3.40086849073329     -3.34425041047455     -0.00334225537635
  H   5.27484648285685     -2.15646252023882     -0.03351327843213
  H   6.50307694813841     -0.00003706619481     -0.03781300392072
  H   5.27488494921345      2.15641156352712     -0.03386211340711
  H   1.70625744548212      2.51970698274686     -0.02173541124531
  H   3.30715151872351      3.28839829555090     -0.02692538650971
