40
Coordinates from ORCA-job ./opt_b3lyp_cdz
  C   -5.88904313540013     -0.69378777259718     -0.00058449977618
  C   -4.51692495797582     -1.17332953763130     -0.00054355053213
  C   -3.74295282152712      0.00013385969733     -0.00046970923503
  C   -4.51684579498455      1.17364963800655     -0.00045862620865
  C   -5.88899625975168      0.69420067010259     -0.00053452359009
  H   -6.77719539313118      1.32442934378391     -0.00054992832132
  C   -3.76261589450878      2.35840044832578     -0.00037831246519
  N   -2.42010714782347      2.38105344931270     -0.00031707335170
  C   -1.71945588299389      1.22964573343453     -0.00032789681663
  N   -0.39120201789732      1.20494097866077     -0.00025887530537
  C   0.21150506563640      0.00000072401074     -0.00028813144186
  N   -0.39128302655363     -1.20489845404610     -0.00036973903514
  C   -1.71953835085100     -1.22951425552189     -0.00042162530853
  N   -2.40042691571252      0.00008865386509     -0.00040857118505
  N   -2.42026722769251     -2.38087471963977     -0.00048697857055
  C   -3.76277444109336     -2.35813104962341     -0.00054432193760
  H   -4.24185871974140     -3.34407080679372     -0.00059421525544
  N   1.59700450906955     -0.00006906175913     -0.00022933865570
  C   2.43922537131971      1.15712683312503     -0.00027480427692
  C   2.12929753265447      2.52443786039355     -0.00035739812650
  C   3.19042891469896      3.43542150039737     -0.00039708237169
  C   4.52904362421893      3.01480789041507     -0.00035244162438
  C   4.83326047622285      1.65426786301343     -0.00026611808369
  C   3.78679244303895      0.72498973809568     -0.00022703022650
  C   3.78667619857242     -0.72546988439285     -0.00014167413205
  C   2.43904296559317     -1.15738719059609     -0.00014828149501
  C   2.12888259024281     -2.52464208912861     -0.00006319396256
  C   3.18986074007051     -3.43580384925636      0.00002785830662
  C   4.52854587100870     -3.01541203738273      0.00003271158894
  C   4.83298999791614     -1.65492145640815     -0.00005227458071
  H   5.87089465095345     -1.31443745508595     -0.00004762419258
  H   5.33209629980877     -3.75532482829019      0.00010331197804
  H   2.95995030205418     -4.50391269468121      0.00009426486370
  H   1.09894744425228     -2.86384134193092     -0.00007847934631
  H   5.87110863367208      1.31361188320911     -0.00023011665201
  H   5.33271736890508      3.75458696866953     -0.00038403488468
  H   2.96069797824449      4.50356895863455     -0.00046146197818
  H   1.09942402521959      2.86381051660351     -0.00038221716922
  H   -4.24163386181976      3.34437243861142     -0.00036377255296
  H   -6.77728479991534     -1.32395654470268     -0.00064491968914
