94
Coordinates from ORCA-job ./opt_b3lyp_cdz
  C   9.32364105758677      3.03800584399805     -1.12087226191574
  C   7.89274859724121      3.21506947004570     -0.76088374214344
  C   7.07488456531081      4.29292647531058     -0.58976013821761
  C   5.77719148048044      3.79774415588414     -0.22561941029231
  C   5.89496104177251      2.42851421073881     -0.20239328070419
  N   4.92822644165327      1.48598576015633      0.05902593604855
  C   4.97527709399540      0.12396659835698      0.24474197544329
  C   6.19000483642440     -0.58949740401614      0.19085201681164
  C   6.26754311664367     -1.97536268531655      0.41594734187900
  N   7.48206416213418     -2.64586235037558      0.41933116084835
  C   8.75513057594817     -1.95055316195785      0.23090711641291
  H   9.49829417111349     -2.45086743388022      0.88077882605377
  H   8.67436284527455     -0.91727894366685      0.58824711647601
  C   9.23746488352828     -2.02205330885209     -1.22590363446756
  H   10.21559837567158     -1.51942958684747     -1.32034474585917
  H   8.52667056795376     -1.47432456115812     -1.86974305255198
  C   9.33730202252018     -3.48801310837258     -1.67587755972364
  H   10.16498549793594     -3.97714783725267     -1.12694019568706
  H   9.59354213860606     -3.54944035252398     -2.74671796998349
  C   8.03117411844339     -4.24520545801140     -1.39253004312246
  H   7.22831859665088     -3.86963585712022     -2.05237188940466
  H   8.15169057830933     -5.32087475019930     -1.60961484182427
  C   7.58829834249111     -4.06468119351277      0.07049860699574
  H   8.33241396350363     -4.52996897385870      0.74427164507768
  H   6.63475054908512     -4.57364654717730      0.24641548093342
  C   5.05449016316506     -2.66591171776731      0.70698679770252
  C   3.85927617266107     -1.98235259791701      0.72319994373592
  C   3.73590281924800     -0.59249056940664      0.47268546187156
  C   2.41362765021167      0.01455164222772      0.46982966129766
  C   1.18158716413208     -0.71131486957588      0.37735226687346
  C   0.00042840396784      0.05406005951359      0.49194772913692
  C   -1.18141776653415     -0.71017812175454      0.37686932586333
  C   -0.69618557376597     -2.04815129055275      0.12596402995006
  C   0.69517485198324     -2.04882708287168      0.12629267739254
  H   1.30199018645272     -2.92598369121474     -0.08181827258636
  H   -1.30375551463563     -2.92471911441193     -0.08241890918251
  C   -2.41279432650496      0.01689688619154      0.46883451296704
  N   -2.35524877286150      1.38362054893897      0.55161267075991
  C   -1.22165069365287      2.07828313174313      0.59861828117015
  N   -1.20786972472904      3.42153738948591      0.64279241946005
  C   0.00230272257769      3.99243030043858      0.66752609516895
  N   1.21192990472811      3.42036116526077      0.64329874172494
  C   1.22442366717459      2.07709810037026      0.59912236481551
  N   0.00106052636869      1.40396645521962      0.60092765338274
  N   2.35738041236042      1.38133615290715      0.55256775198899
  H   0.00282403714365      5.08759181271961      0.70710831525218
  C   -3.73568094068266     -0.58879600200557      0.47108238515313
  C   -3.86062807834703     -1.97857007931265      0.72130125944310
  C   -5.05656201287429     -2.66086504640355      0.70453753062518
  C   -6.26877422072136     -1.96894052153912      0.41330254301736
  N   -7.48402329987735     -2.63806762828392      0.41612855717787
  C   -7.59183094783799     -4.05659564873836      0.06667384589193
  H   -6.63883503193330     -4.56669790567154      0.24232266809761
  H   -8.33645916002146     -4.52140077794632      0.74021494804983
  C   -8.03488746773453     -4.23587601380155     -1.39646359222008
  H   -8.15663923727323     -5.31129392034529     -1.61410451918822
  H   -7.23156778197641     -3.86089838482120     -2.05607699091108
  C   -9.34012584167377     -3.47702509615723     -1.67950129924091
  H   -9.59634937418686     -3.53759318826710     -2.75039453371791
  H   -10.16841182294177     -3.96551139790623     -1.13089473125657
  C   -9.23869493186875     -2.01141367616659     -1.22873290663855
  H   -8.52727395605490     -1.46406450287604     -1.87220818250342
  H   -10.21627949984459     -1.50767654402315     -1.32293102697626
  C   -8.75631383025076     -1.94125087242443      0.22812438644339
  H   -8.67440727094191     -0.90825682211686      0.58602183169553
  H   -9.50002951283920     -2.44109670089780      0.87772636602734
  C   -6.18967137763435     -0.58312744896377      0.18847498519947
  C   -4.97419241324772      0.12902321353205      0.24275344592556
  N   -4.92568591418052      1.49098437615746      0.05702860612470
  C   -5.89132739866924      2.43445013016769     -0.20505049432257
  C   -5.77211702778643      3.80355029306489     -0.22853058006168
  C   -7.06910556497914      4.30000854948597     -0.59343657702209
  C   -7.88801514494356      3.22296943617949     -0.76472024019092
  O   -7.16368025669104      2.06194257626975     -0.52827538681328
  C   -9.31890547769601      3.04731703402193     -1.12541052944973
  H   -9.88956126810418      2.54902047872826     -0.32105790396071
  H   -9.77699595529076      4.03067613105339     -1.30612265022415
  H   -9.44125909446514      2.44001055038684     -2.03985069124337
  H   -7.35913129294805      5.34179524448476     -0.71191571880336
  H   -4.86894108929204      4.36858030849914     -0.01315282535139
  H   -3.97694488689605      1.87152379146168      0.22613044707502
  H   -7.08231627308064     -0.01897882798557     -0.04922562771319
  H   -5.06220934343511     -3.71667097878590      0.96977396319006
  H   -2.96606643268119     -2.53202263133460      0.99852945718799
  H   2.96401892950877     -2.53479532288371      1.00020992387437
  H   5.05893075981890     -3.72165972518173      0.97245886692882
  H   7.08332673671917     -0.02633694256315     -0.04666039990681
  H   3.97977572872585      1.86748073239279      0.22763398012268
  O   7.16707663424645      2.05475051032873     -0.52507283947914
  H   4.87450141165553      4.36366535000400     -0.01054830598173
  H   7.36606956693759      5.33443340441845     -0.70784812302162
  H   9.78287988776871      4.02092977405474     -1.30103425345886
  H   9.89332259112448      2.53885498702615     -0.31636068005224
  H   9.44583894712973      2.43085059484975     -2.03543306766557
