50
Coordinates from ORCA-job ./opt_b3lyp_cdz
  C   -8.05612216775121     -0.57045926816580      0.39408246839311
  C   -6.68760778326516     -0.96548845850986      0.66554637148587
  C   -5.91084226532119      0.00170334943560      0.00008015247731
  C   -6.68710953465273      0.96932957740451     -0.66533621540095
  C   -8.05582710481493      0.57506899956908     -0.39377952307484
  H   -8.94463253634578      1.09376266271888     -0.75032787275440
  C   -5.93419880790621      1.94660495051483     -1.33771479857107
  N   -4.59299288329342      1.96518476888934     -1.35062164529083
  C   -3.89039097728699      1.01758888916033     -0.69887309951934
  N   -2.55996311919396      0.99549019291626     -0.68298607084905
  C   -1.95667292566669      0.00061786363303     -0.00001875838023
  N   -2.56047468798392     -0.99395500364558      0.68293312055335
  C   -3.89091380739849     -1.01531855204146      0.69889430844738
  N   -4.57018928084103      0.00132770945844      0.00003619723693
  N   -4.59400392805922     -1.96252042762503      1.35068905986820
  C   -5.93520022675585     -1.94318544780108      1.33787557310648
  H   -6.41628766299652     -2.75464751017576      1.89622796804506
  C   -0.47588602555564      0.00012832730677     -0.00017954879518
  C   0.23931514046148      0.98864498273917     -0.70073640148361
  C   1.63147255032108      0.98524872816461     -0.70804051212791
  C   2.33987837215633     -0.00079451275213     -0.00047959031199
  N   3.75797630686834     -0.00127284316820     -0.00062886323796
  C   4.57896029097565     -1.08590858847185     -0.34550306379100
  C   5.93828087123683     -0.69273313900828     -0.22211811188789
  C   5.93879903059576      0.68887704097359      0.21983975270291
  C   6.95648217438943      1.60262696462023      0.52980441580548
  C   6.61164285096914      2.88254036586538      0.96193429515665
  C   5.25998691395955      3.25212078152150      1.09559477758575
  C   4.22795705686714      2.36197107929478      0.79341262144395
  C   4.57977243756431      1.08287435877489      0.34383510089315
  H   3.18459399291226      2.65619310541769      0.91252773033597
  H   5.00877407818825      4.25593304529686      1.44632805309868
  H   7.39467701095642      3.60410029873602      1.20495925450033
  H   8.00571410580495      1.31173613785675      0.43823072308854
  C   6.95527257549263     -1.60709992803159     -0.53253113125376
  C   6.60946660073976     -2.88680418906132     -0.96450823756454
  C   5.25752790360314     -3.25556489428991     -1.09756693099851
  C   4.22617093660768     -2.36479248518336     -0.79491993381889
  H   3.18257831197342     -2.65838605088395     -0.91357011676841
  H   5.00554971552874     -4.25922415506114     -1.44818888452961
  H   7.39195561226419     -3.60883820472908     -1.20788064932659
  H   8.00472055268645     -1.31684340136532     -0.44142212719151
  C   1.63097554153359     -0.98637017099428      0.70723516378596
  C   0.23881459530567     -0.98886050829086      0.70022118163066
  H   -0.31803439165674     -1.74784555586247      1.24976893131957
  H   2.17923570780472     -1.73959678551215      1.27525157354669
  H   2.18010295329456      1.73812715627323     -1.27616071146185
  H   -0.31715233838633      1.74799941334786     -1.25016041417937
  H   -6.41486818347233      2.75833480261989     -1.89603801972208
  H   -8.94519448705710     -1.08865428457908      0.75069043738341
