66
Coordinates from ORCA-job ./opt_b3lyp_cdz
  C   -6.14268480879550     -2.61784656206948     -0.55445264996240
  N   -4.96359914709314     -1.82175546660926     -0.32587793791242
  C   -4.96603859162394     -0.47582814249156     -0.13313477743809
  C   -6.18448518282480      0.23922716481966     -0.18610590195249
  C   -6.25948282703685      1.62851992861925      0.02244608905460
  N   -7.46364433890427      2.29759295349042     -0.05034325095430
  C   -8.69539013919732      1.55822388292100     -0.25898415015217
  H   -9.53450250818213      2.26297887742989     -0.32196126231344
  H   -8.90494836705614      0.84498075004439      0.56175084324341
  H   -8.66564104268817      0.98395267595804     -1.20163279436437
  C   -7.53798940727099      3.71080040030851      0.28064327932113
  H   -6.86468777288399      4.31053742110521     -0.35536584514365
  H   -8.56230172350369      4.06622912772714      0.10908093241098
  H   -7.27636960579341      3.91533760120225      1.33672286089856
  C   -5.05457445008824      2.32429759602886      0.33003943120558
  C   -3.85801074971667      1.63780291883643      0.35506766808970
  C   -3.73262577994526      0.24984382059407      0.10641792783727
  C   -2.41313007812463     -0.36382586499068      0.11309395309996
  C   -1.18158050404304      0.36153069137212      0.01034180123374
  C   -0.00019207531128     -0.40059029744893      0.13743695729467
  N   -0.00004648629904     -1.74727501776060      0.26848234596838
  C   -1.22561889462858     -2.41943609843430      0.27788490852024
  N   -1.21015861469373     -3.76228153447054      0.34820232825334
  C   0.00029417366480     -4.33133806212771      0.38481775538724
  N   1.21060417529981     -3.76192418068304      0.34916288071212
  C   1.22571784089097     -2.41907537205891      0.27885729581495
  N   2.36125571049948     -1.72766739674936      0.21922935068326
  C   2.41275389073803     -0.36311099238208      0.11501782037272
  C   3.73207916038686      0.25092394657524      0.10938702705882
  C   3.85689417482749      1.63892863828333      0.35808542884106
  C   5.05329511768840      2.32573744863621      0.33400884566516
  C   6.25864413652788      1.63025051312189      0.02746516721726
  N   7.46269236846237      2.29960195338158     -0.04423342781624
  C   8.69475398164893      1.56062151945868     -0.25235343658444
  H   8.66605436061639      0.98705634283004     -1.19548546599548
  H   9.53381877253297      2.26555475480468     -0.31389565455385
  H   8.90359714593704      0.84678272176341      0.56802691708985
  C   7.53623510266006      3.71309856629548      0.28566126642094
  H   8.56066195189991      4.06867776661568      0.11511120692420
  H   7.27325835858578      3.91839114457638      1.34124882734759
  H   6.86353660611322      4.31216079714523     -0.35164255744842
  C   6.18417807471672      0.24093848928287     -0.18116704684717
  C   4.96587739327732     -0.47443261370561     -0.12913835104129
  N   4.96393827598317     -1.82036628237567     -0.32184101137294
  C   6.14342337262439     -2.61616655186170     -0.54936681961591
  H   6.67512821689030     -2.32007999111543     -1.47328982709503
  H   6.86906364549106     -2.55431227079656      0.28588897048685
  H   5.84097282992754     -3.66716394134225     -0.65747250338986
  H   4.06283789671781     -2.27078228349767     -0.14049514384920
  H   7.09275941621077     -0.32028385247875     -0.37645754929935
  H   5.05895126957984      3.38861947141343      0.56589265730060
  H   2.96122551434175      2.19363129180364      0.63042435390025
  C   1.18106883643104      0.36188248581674      0.01127940419189
  C   0.69548141689445      1.69572855941399     -0.26040649951274
  C   -0.69618100693432      1.69552317663738     -0.26094726130976
  H   -1.30447041127904      2.56857415366297     -0.48233887170444
  H   1.30367984571864      2.56896141885482     -0.48132658952468
  H   0.00043337404811     -5.42584802918550      0.44653855421537
  N   -2.36131619022571     -1.72836463795705      0.21735389216533
  H   -2.96270928545165      2.19273191393786      0.62816034013112
  H   -5.06068821693914      3.38716941249745      0.56195601660563
  H   -7.09276804168193     -0.32224813136422     -0.38205860408498
  H   -4.06254600344087     -2.27195221655565     -0.14375341383223
  H   -6.86900135068641     -2.55635085274208      0.28024377872470
  H   -5.83985344902059     -3.66873976147481     -0.66250902773865
  H   -6.67374660547605     -2.32174700203774     -1.47874008887784
