88
Coordinates from ORCA-job ./opt_b3lyp_cdz
  C   9.15407869828262      4.36639352656439      0.05084531687748
  H   9.47594030778793      4.25654419351845      1.10031789333167
  H   9.48933827390814      5.35243351755292     -0.30307128349708
  C   7.63167429409371      4.19529868504380     -0.04753207160118
  N   7.45412492840848      2.74955289004759     -0.19991018875846
  C   6.24873947282205      2.10971554887319     -0.07552407675704
  C   5.04614265686084      2.84874162326948      0.10828629902467
  C   3.84980348706191      2.17575568572078      0.24573701835199
  C   3.72897204432276      0.76529148521219      0.20891039245425
  C   4.95313165473452      0.01148979677267      0.04089008127103
  N   4.90992945955951     -1.36540427997814      0.04758303687320
  C   5.86699394690458     -2.30902891716109     -0.34605165675521
  C   5.84129602834783     -3.56638319139266      0.29322711842033
  C   6.72380609112633     -4.57663112156801     -0.08581622250795
  C   7.66013299846443     -4.36006584096387     -1.10321763462842
  C   7.68146691517969     -3.12111439078497     -1.75025316451063
  C   6.79409569057679     -2.10474688833991     -1.38764476136944
  H   6.79714707475887     -1.16342428215009     -1.93731408399404
  H   8.38972590562483     -2.94212222103060     -2.56372484391671
  H   8.35657349198145     -5.14959625238473     -1.39371962186077
  H   6.68236432922642     -5.54202828520518      0.42506028294575
  H   5.11331971707956     -3.73939296920110      1.09019465064284
  H   4.02999832036971     -1.72681134105054      0.43656707317495
  C   6.17022870692215      0.70355208391333     -0.10069469513498
  H   7.08396506095885      0.11996444018435     -0.16956495072308
  C   2.40829767397873      0.16508326881211      0.36111313010903
  N   2.36129708406724     -1.13607112125661      0.77952786904414
  C   1.22627002983904     -1.79772143621845      0.99944008311355
  N   0.00049942894624     -1.14610819622808      0.83294836750105
  C   -0.00009694054159      0.13504092622716      0.40074443991478
  C   -1.18046442770663      0.84916108252761      0.10456132906493
  C   -0.69662131202759      2.09085411611742     -0.45646853984717
  C   0.69474901833087      2.09164100733070     -0.45604843135801
  C   1.17963938887138      0.85044379182543      0.10514838491807
  H   1.30673813295106      2.89364507396749     -0.86119567287942
  H   -1.30925979478180      2.89216499804536     -0.86199209146368
  C   -2.40850628084215      0.16244130763141      0.35991174338795
  N   -2.36027594925448     -1.13866176420073      0.77834680793311
  C   -1.22463684105753     -1.79906629801224      0.99882616239995
  N   -1.20885926915098     -3.08677957744505      1.38138893002082
  C   0.00168547371225     -3.63217770687268      1.55011897908712
  N   1.21171592014758     -3.08545601102612      1.38197957598123
  H   0.00218160825044     -4.68151840390093      1.86622195153278
  C   -3.72980691195767      0.76111399223690      0.20710637600929
  C   -3.85247492219514      2.17140388043780      0.24451107703368
  C   -5.04961007901847      2.84290624609256      0.10674582248986
  C   -6.25117927896496      2.10243374785651     -0.07798777240667
  N   -7.45727264194799      2.74090100147471     -0.20275004085366
  C   -7.63655987540986      4.18639388825839     -0.04984063998521
  H   -7.22326983012520      4.73365866813199     -0.92017343790637
  H   -7.11752721792626      4.55897056486743      0.84874826836871
  C   -9.15921837869686      4.35578665287484      0.04776105511466
  C   -9.69567728366185      3.18827853202117     -0.79355085498090
  C   -8.71954294450062      2.04971834092511     -0.46871180057341
  H   -8.61148702041140      1.33762031960201     -1.30361443739361
  H   -9.05188894602651      1.47004272085555      0.41543792355894
  H   -10.73862305330936      2.92585601228244     -0.56302542834906
  H   -9.63870016893937      3.43659873474570     -1.86699714591198
  H   -9.49537792544195      5.34157426176551     -0.30600765572640
  H   -9.48153793483192      4.24522340208114      1.09701814573441
  C   -6.17083797039338      0.69636026898197     -0.10371406069495
  C   -4.95290487202295      0.00582834365868      0.03813507723595
  N   -4.90789905715198     -1.37101097130689      0.04405101909439
  H   -4.02756331303135     -1.73150722985595      0.43296515405228
  C   -5.86359035821537     -2.31562000896545     -0.35054362400737
  C   -5.83644802071680     -3.57340075314471      0.28783524606777
  C   -6.71751879980208     -4.58452551159383     -0.09221815701874
  C   -7.65381818264937     -4.36844051413853     -1.10974772068334
  C   -7.67658458707819     -3.12903984556608     -1.75587618585690
  C   -6.79065154262166     -2.11178107517789     -1.39225602310344
  H   -6.79478860743035     -1.17004110525549     -1.94121015597212
  H   -8.38484048605912     -2.95037244388651     -2.56942165563392
  H   -8.34913835862811     -5.15866815905818     -1.40103667554602
  H   -6.67497103064277     -5.55024186609447      0.41796434281464
  H   -5.10849167373561     -3.74604027015066      1.08489999491217
  H   -7.08374285339355      0.11155335400109     -0.17337825961297
  H   -5.06477620366445      3.93077992053962      0.15404645662208
  H   -2.95633907565117      2.75980940425936      0.43450878260278
  H   2.95278035506291      2.76309676599144      0.43490796325788
  H   5.05988949004353      3.93665511556402      0.15508945573168
  C   8.71729117708429      2.05968664663668     -0.46503910570223
  C   9.69231421391559      3.19921196593917     -0.78976954096397
  H   9.63563941182016      3.44708947082870     -1.86333414675512
  H   10.73542917182081      2.93804464556862     -0.55858455678032
  H   9.04984341732165      1.48065621620816      0.41945410292714
  H   8.61042987416719      1.34720440591907     -1.29977041881164
  H   7.11173002959725      4.56767836116029      0.85060920851087
  H   7.21826408623159      4.74172740735981     -0.91833480142731
