80
Coordinates from ORCA-job ./opt_b3lyp_cdz
  N   -4.89539415410753     -1.32827112410674      0.07036602408142
  C   -4.93602596804106      0.04462125135053      0.05815231835176
  C   -6.15894244469478      0.73462056606244     -0.10503310355221
  C   -6.22735597886670      2.12575104571639     -0.08619139781816
  N   -7.47245549662024      2.77277379942634     -0.24482362936251
  C   -7.82018256275151      4.00515548486812      0.29415425202607
  C   -9.11502116155037      4.29051756149895     -0.07384999531111
  C   -9.58186227720288      3.20072723262294     -0.87480324664175
  C   -8.55908749323565      2.28385705994428     -0.95821485372401
  H   -8.49166323174737      1.34615734409162     -1.50022161337226
  H   -10.55692101095878      3.10571042867381     -1.34732065412322
  H   -9.67194649367270      5.18073814151980      0.20969231206561
  H   -7.13098824416908      4.54619741197127      0.93430678892753
  C   -5.05641718667557      2.88427042396970      0.11830131816126
  C   -3.85440181711745      2.22169392175852      0.29147361036773
  C   -3.73036575656357      0.81409670409173      0.25429939866956
  C   -2.40271864355742      0.21682747139909      0.42835559069148
  N   -2.36075568830897     -1.07125148275291      0.87352979639479
  C   -1.22347358086763     -1.72888588632938      1.10800894012374
  N   0.00138118201602     -1.07790095492463      0.92565588057220
  C   0.00041956025770      0.19140283386276      0.46771920701923
  C   1.17982559690337      0.90325913454328      0.16049566283462
  C   0.69423619343560      2.13571984492593     -0.42092880642323
  C   -0.69612989546578      2.13441293710078     -0.42163665431042
  C   -1.18000729651159      0.90108777584613      0.15939916121397
  H   -1.30909487648864      2.92955369446788     -0.83856477324137
  H   1.30613986569269      2.93200823410410     -0.83723294554899
  C   2.40354709542307      0.22126726131459      0.43056660277372
  N   2.36355331891211     -1.06686730265783      0.87576481797579
  C   1.22726746919324     -1.72660707395914      1.10917975561698
  N   1.21258309838921     -3.00410171442634      1.51681575584184
  C   0.00331080134723     -3.54988455763146      1.69582823816134
  N   -1.20680253291735     -3.00635034501591      1.51566493933187
  H   0.00411960107350     -4.59245903552320      2.03220479969923
  C   3.73020151630138      0.82114178333821      0.25779744462639
  C   3.85129179872435      2.22899480853699      0.29496030506961
  C   5.05208320067363      2.89405563015223      0.12281726480206
  C   6.22476938024398      2.13795660901822     -0.08059095932927
  N   7.46866935370880      2.78754258992677     -0.23818687903125
  C   8.55689904798935      2.30085069848895     -0.95065908945478
  C   9.57771330670192      3.21982760379052     -0.86641236878443
  C   9.10796437894093      4.30866979818679     -0.06587113851284
  C   7.81340745335256      4.02064968571923      0.30105878804879
  H   7.12256011965961      4.56026591391147      0.94063604069456
  H   9.66281950241966      5.20004100964952      0.21811376828826
  H   10.55335772102068      3.12680931855168     -1.33811819013376
  H   8.49185861744465      1.36300105007724     -1.49269833067976
  C   6.15925909442063      0.74668567160112     -0.09941972653519
  C   4.93764099547057      0.05414535263867      0.06274100979432
  N   4.89992511547837     -1.31883191992821      0.07498225478345
  C   5.86571817945224     -2.24559606968127     -0.35284591130087
  C   6.69920448953063     -2.03532124272606     -1.46789648051691
  C   7.60301382576747     -3.02337864893436     -1.86532200812152
  C   7.68349976183661     -4.23881759295880     -1.17892231846814
  C   6.83883797734064     -4.46081792975419     -0.08599133130129
  C   5.94273950744741     -3.47572518224373      0.32865734323218
  H   5.28950336721191     -3.64850290649883      1.18775197295341
  H   6.88161526377050     -5.40831905784068      0.45680254661602
  H   8.39065431884940     -5.00773216795885     -1.49714169815678
  H   8.24046172949103     -2.84318235819024     -2.73468296422257
  H   6.61797804027235     -1.11217180561724     -2.04326391019957
  H   4.03865633153061     -1.69024900451027      0.49139202140311
  H   7.07954057033176      0.17073871402915     -0.16767801383525
  H   5.08523644386942      3.98283650325243      0.13157293418199
  H   2.95899180978069      2.81959469702864      0.49529872056068
  H   -2.96353249075546      2.81412357460113      0.49272814545270
  H   -5.09183958995672      3.97297920546850      0.12712786353014
  H   -7.07796178160815      0.15676031615703     -0.17411062850642
  C   -5.85884065755392     -2.25709112717056     -0.35829965943170
  C   -6.69188928155635     -2.04854088192860     -1.47399947372034
  C   -7.59322882251220     -3.03853230218425     -1.87222111542058
  C   -7.67162100870419     -4.25419575228729     -1.18597763483981
  C   -6.82735570430990     -4.47444294948756     -0.09238576874145
  C   -5.93373460239412     -3.48743508520466      0.32305218290253
  H   -5.28081051740719     -3.65885599640208      1.18265576674377
  H   -6.86850785134651     -5.42207596345131      0.45030303209198
  H   -8.37684698714103     -5.02462149877492     -1.50482109525266
  H   -8.23037021917111     -2.85965750431078     -2.74207932263984
  H   -6.61221444863491     -1.12517314238798     -2.04923436040684
  H   -4.03362956403620     -1.69786630539769      0.48736385139106
