104
Coordinates from ORCA-job ./opt_b3lyp_cdz
  N   4.89112996826185      2.15206434754700     -0.42774910508943
  C   4.93463618105188      0.79114412153811     -0.25107006969679
  C   6.15280318761552      0.11897627327783      0.00960439293190
  C   6.21275219052650     -1.26532090812159      0.13989280167755
  C   5.04866631789791     -2.04442672018318     -0.00203783706426
  C   3.84833867302130     -1.40283043331082     -0.25843975544248
  C   3.73120378702682      0.00119360669351     -0.37108389487236
  C   2.40282377344519      0.57574798827286     -0.61999588798085
  N   2.36292729665093      1.79955803563730     -1.21796547676839
  C   1.22616091206106      2.42519706750844     -1.53149688507152
  N   0.00087309557375      1.80188739800196     -1.27138517852311
  C   0.00073762462017      0.59784012162604     -0.66328812230485
  C   1.18051122774272     -0.07064437847438     -0.27120539510560
  C   0.69544916282129     -1.22521113316049      0.45347597083007
  C   -0.69464794498188     -1.22553547074356      0.45251763380395
  C   -1.17926362438732     -0.07119200680521     -0.27281826837394
  C   -2.40140701968829      0.57463031439114     -0.62325901505846
  N   -2.36124555807397      1.79844311846372     -1.22122418488766
  C   -1.22434331086246      2.42460913844847     -1.53318774655059
  N   -1.20858712646036      3.64274414533992     -2.09285924206742
  C   0.00104792834015      4.16229521826678     -2.33656489837941
  N   1.21060061400367      3.64332282262341     -2.09117728868942
  H   0.00113957801486      5.15622586066230     -2.79700766281066
  C   -3.72985595913619     -0.00063822947545     -0.37632036154989
  C   -3.84645533070511     -1.40478000035539     -0.26455515864916
  C   -5.04680637007481     -2.04710454740083     -0.01011044244112
  C   -6.21147722334770     -1.26866409852411      0.13066135252316
  N   -7.45958755115882     -1.89639616972667      0.38056074809267
  C   -8.32089194453562     -1.61396266652523      1.45068503324277
  C   -9.46579035759739     -2.44911807088840      1.35385662478690
  C   -9.28861235282638     -3.27079524657446      0.17145462013546
  C   -8.04104259851535     -2.90581128879884     -0.40113237706927
  C   -7.58092055890427     -3.49108281352677     -1.58746882755874
  C   -8.38027051548415     -4.46878306737952     -2.18226486156970
  C   -9.61171114001104     -4.85350622916694     -1.61897943639266
  C   -10.07256052322975     -4.25567883432672     -0.44676826751412
  H   -11.03424651334331     -4.54587767362253     -0.01690023990952
  H   -10.21221664963817     -5.62261488399146     -2.10958238012933
  H   -8.04124619121649     -4.94078981216762     -3.10749249282517
  H   -6.63413817375692     -3.19135381861899     -2.03822973215222
  C   -10.46915906591799     -2.36436622519448      2.32996847161583
  C   -10.31738998601449     -1.46481050134948      3.38441987108458
  C   -9.16738998397626     -0.65828036673435      3.47666467532965
  C   -8.15487917617101     -0.72218470207124      2.51769932176512
  H   -7.25915303177610     -0.10629565438444      2.60670177369675
  H   -9.05971345033995      0.03074884294013      4.31777193094616
  H   -11.09233499819348     -1.38858539422633      4.15020992865613
  H   -11.35534828344945     -3.00042522842471      2.26686210632843
  C   -6.15203659041570      0.11573813333773      0.00121331320440
  C   -4.93386025315629      0.78865155891087     -0.25747298961130
  N   -4.89081692132540      2.14970191627221     -0.43320490136182
  C   -5.85972368802522      3.13224661651148     -0.16730325694439
  C   -5.87184936865187      4.27196902409668     -0.99594128122758
  C   -6.76763305116826      5.31322231669136     -0.75699482592731
  C   -7.67695151000186      5.23889571028614      0.30391714955985
  C   -7.66106390288774      4.11564161973925      1.13540343415648
  C   -6.75803782458285      3.07275549484694      0.91450177054045
  H   -6.73496678657400      2.22770709763196      1.60237912251104
  H   -8.35185231485066      4.04975432018398      1.97959785345073
  H   -8.38453938990034      6.05078935516699      0.48461132652089
  H   -6.75908389069482      6.18761933378112     -1.41238175950209
  H   -5.16747267984612      4.32986474703669     -1.82986108371402
  H   -4.02883512359920      2.46063587286383     -0.89494324012723
  H   -7.07834285954050      0.68534768847811      0.03770162132648
  H   -5.09411410495298     -3.13179917790113      0.08447152106350
  H   -2.95406733372886     -2.01082046348808     -0.41219630469767
  H   -1.30809626033112     -1.96601420414205      0.95966074626073
  H   1.30853739468618     -1.96541700486417      0.96145458687431
  H   2.95643876677956     -2.00939115843773     -0.40691522012616
  H   5.09637886010862     -3.12904760822265      0.09318788095269
  N   7.46085163715879     -1.89226468606205      0.39183592117850
  C   8.32048447847093     -1.60889540540690      1.46305450113424
  C   9.46592652029775     -2.44354096225457      1.36826206827902
  C   9.29083069154332     -3.26588314811401      0.18601686241453
  C   8.04390075309136     -2.90178455233063     -0.38852814678915
  C   7.58574231480073     -3.48786880308800     -1.57522234028064
  C   8.38640487389749     -4.46548249958421     -2.16839081308736
  C   9.61722732388881     -4.84933294805326     -1.60316530061400
  C   10.07612671654519     -4.25070029512420     -0.43060111750600
  H   11.03733749495943     -4.54023099048215      0.00077673989312
  H   10.21879440559795     -5.61839799846403     -2.09253494126406
  H   8.04892193670120     -4.93811607321765     -3.09386217326095
  H   6.63945713689912     -3.18883091271266     -2.02748445544892
  C   10.46786822068131     -2.35781060713941      2.34575325494641
  C   10.31416004421722     -1.45780954981888      3.39954535691767
  C   9.16363240395211     -0.65180285393008      3.48976270988475
  C   8.15251679280915     -0.71667535747013      2.52939163114564
  H   7.25635448336085     -0.10119630366601      2.61681755352553
  H   9.05442138625321      0.03758438366648      4.33037869586779
  H   11.08798108247405     -1.38083130864119      4.16639560832065
  H   11.35445774621294     -2.99346469434588      2.28421513179947
  H   7.07877974914350      0.68904735249207      0.04697047455321
  C   5.85943504931304      3.13513473372327     -0.16148784219991
  C   6.75584858769588      3.07711868866278      0.92197323021472
  C   7.65843834039867      4.12032328461460      1.14308671578305
  C   7.67566442745318      5.24251540006719      0.31018650708823
  C   6.76814614839085      5.31544039512712     -0.75235766944860
  C   5.87285589855151      4.27380219591852     -0.99153083396170
  H   5.16993172058097      4.33056210615531     -1.82675261119900
  H   6.76065609190115      6.18900928075182     -1.40886030739001
  H   8.38288960638994      6.05468765327622      0.49105146112618
  H   8.34780087846527      4.05553373749905      1.98852773107694
  H   6.73158166022239      2.23296028238034      1.61089315320297
  H   4.02972722543908      2.46223441980684     -0.89106298403329
