88
Coordinates from ORCA-job ./opt_b3lyp_cdz
  C   -8.74713000326764     -2.81491841580496      0.13422613182183
  N   -7.52182688599270     -3.59427860787710      0.06530138257344
  C   -6.29935808976643     -2.96567376122086      0.10324231575698
  C   -5.08952539867958     -3.71334995232822     -0.00861263703668
  C   -3.87917290346400     -3.05609922409861      0.00670724171516
  C   -3.74264044538333     -1.65101491483164      0.13877912125738
  C   -2.41618436571340     -1.06482029454814      0.06540673486273
  N   -2.34963751943660      0.27440692576396     -0.24147980208856
  C   -1.21789152489636      0.93747615424414     -0.41991212460935
  N   0.00072494729222      0.27453759199202     -0.30496509919310
  C   -0.00278615018243     -1.03755036005465      0.03281306278213
  C   1.17679802527176     -1.77629099840303      0.26768550844962
  C   0.68744685679781     -3.05877384372098      0.72290588699020
  C   -0.70383501524443     -3.05498747302535      0.72307344226033
  C   -1.18631351290384     -1.76992609083161      0.26778910080831
  H   -1.31686985656482     -3.88594022370463      1.06280829036780
  H   1.29601005271686     -3.89305917401995      1.06251564257629
  C   2.41043540940470     -1.07782906347431      0.06521629223470
  N   2.35105520669076      0.26170356766420     -0.24177198910892
  C   1.22289161903409      0.93086854632298     -0.42009380577918
  N   1.21416197746823      2.24676534881268     -0.72008949820492
  C   0.00754036473791      2.81035574076996     -0.85450050874633
  N   -1.20208798459420      2.25330595809098     -0.71990927584159
  H   0.01040370823179      3.87692447804922     -1.10351530893543
  C   3.73369550554581     -1.67120441610320      0.13865815706690
  C   3.86247576026150     -3.07696865338681      0.00715170661327
  C   5.06912681705656     -3.74099140779681     -0.00772798239039
  C   6.28310066869392     -3.00008541064986      0.10407121043646
  N   7.50204159288866     -3.63554876597087      0.06672083427544
  C   8.73168589441010     -2.86301397012246      0.13513805231085
  H   8.79294096858016     -2.27835066036370      1.07031196033684
  H   9.58961118048585     -3.54636948470982      0.10691454987364
  H   8.82668726516199     -2.15610087858301     -0.70955253494461
  C   7.57623411211795     -5.07608505444783     -0.11786229560414
  H   7.14221399552114     -5.39685095835567     -1.08292119409759
  H   8.62861014012658     -5.38611789941274     -0.10089811271057
  H   7.05110747229683     -5.62036524494826      0.68693289852507
  C   6.19836505138383     -1.60077805623574      0.23679056405891
  C   4.96963774808645     -0.91481069948508      0.26588258813540
  N   4.89922911571262      0.44718579725256      0.41347007873595
  C   5.87538094638585      1.44409248201250      0.56204963229379
  C   7.10651221419217      1.31022577994130      1.21565468684155
  C   8.00205203868995      2.39771327982871      1.32632414643120
  C   7.69939336159262      3.65183146301375      0.81456191006663
  C   6.45082268378577      3.83644815816044      0.18358557186739
  C   5.79215705546703      4.96580741709105     -0.41457154730444
  C   4.56271563901114      4.52864514716743     -0.84800498565412
  N   4.41757077511066      3.18406186170991     -0.57415646901843
  C   5.55825610270041      2.73357877987014      0.06572634495074
  H   3.55275795537968      2.67331685521693     -0.74146067207734
  H   3.76027235954071      5.07208853712378     -1.34140388827939
  H   6.18288705692349      5.97638241821474     -0.50573848136419
  H   8.40298145523496      4.48208939127839      0.90888327798342
  H   8.95210214966949      2.23720493474780      1.84214545753170
  H   7.36664848780330      0.36495611040472      1.68899424235923
  H   3.95220609053697      0.78513813462366      0.21683611373259
  H   7.10527438488583     -1.00933396633573      0.28026285012641
  H   5.07854007200313     -4.82070443230776     -0.14044961760500
  H   2.95897071901556     -3.66327911766709     -0.14920885737272
  C   -4.97440602566378     -0.88773516076787      0.26622302058680
  C   -6.20688987077300     -1.56689675450084      0.23664274639736
  H   -7.11048881504008     -0.97042797248592      0.28024073429986
  N   -4.89652774987425      0.47388895147287      0.41452345515018
  C   -5.86719700636907      1.47610717369400      0.56339477262995
  C   -7.09925874739016      1.34867681124805      1.21653794132613
  C   -7.98877398118671      2.44105701707701      1.32760042703788
  C   -7.67898880620358      3.69379147874479      0.81670979210000
  C   -6.42921116842431      3.87186174814270      0.18624245322603
  C   -5.76410429097671      4.99790029625458     -0.41104053708672
  C   -4.53695981818444      4.55419486710886     -0.84431718284994
  N   -4.39935902980676      3.20866707896333     -0.57121391260002
  C   -5.54275681844746      2.76411983296617      0.06797342715773
  H   -3.53736890806811      2.69318925889607     -0.73854524508585
  H   -3.73135348118441      5.09347982507844     -1.33712269118653
  H   -6.14919391852573      6.01068039384849     -0.50173701012364
  H   -8.37798418873116      4.52788520182352      0.91133139928300
  H   -8.93986420992749      2.28551921934210      1.84302762770307
  H   -7.36478173469038      0.40457123028519      1.68920590689946
  H   -3.94761136025816      0.80673416818802      0.21836174885368
  H   -2.97896618137624     -3.64741143220373     -0.14981478592927
  H   -5.10496158736362     -4.79293986329805     -0.14175173259658
  C   -7.60407048637828     -5.03431165573431     -0.11976466895558
  H   -8.65819874872959     -5.33836671882953     -0.10345633218424
  H   -7.17138853841843     -5.35719589710250     -1.08471142938781
  H   -7.08244029902698     -5.58183889668187      0.68510935550074
  H   -8.83805532449885     -2.10681960495366     -0.70991242010311
  H   -9.60887742899492     -3.49342271124551      0.10535588642062
  H   -8.80520666370886     -2.23065411699444      1.06985821801751
