56
Coordinates from ORCA-job ./opt_b3lyp_cdz
  C   -4.14169116655003     -2.22367167906186     -1.36970781849350
  H   -3.90936567018101     -1.65131571243397     -2.28680144627265
  H   -5.20556347213252     -2.51652296678240     -1.44396021583707
  H   -3.54906634213016     -3.15361740878063     -1.39014268993633
  B   -3.91428865054142     -1.37797280232479     -0.00042798866643
  C   -4.66139683022222      0.04470536318324      0.00003522303652
  C   -6.03189298623962      0.34748047136816      0.00016998677571
  C   -6.46426881536743      1.67434532471487      0.00060012132194
  C   -5.54173937631047      2.74033335256395      0.00090916801483
  C   -4.17858225024063      2.47775681234133      0.00078633986599
  C   -3.75179391764212      1.13212229031506      0.00034947242767
  C   -2.38680004268561      0.65599612062924      0.00015540561386
  N   -2.35741748639655     -0.72874470177763     -0.00027436180304
  C   -1.21720268772443     -1.44816209450393     -0.00053831830052
  N   0.00000326140959     -0.75914642908825     -0.00037615407933
  C   0.00000355332511      0.59400187069332      0.00004217863582
  C   1.17196042626273      1.37189216745702      0.00023333333068
  C   0.69377676031823      2.73789626570737      0.00067573655564
  C   -0.69376866131632      2.73789657005656      0.00074102327257
  C   -1.17195298371736      1.37189269091960      0.00033285922547
  H   -1.31195752463397      3.63181435518555      0.00104924532000
  H   1.31196607438152      3.63181375656559      0.00092748136473
  C   2.38680714608756      0.65599502934159     -0.00004455921456
  N   2.35742401467263     -0.72874582062959     -0.00047107206139
  C   1.21720886148559     -1.44816270260137     -0.00064015314660
  N   1.20424591640967     -2.78028091291780     -0.00104735170764
  C   0.00000254517623     -3.36016652645490     -0.00117297262697
  N   -1.20424050302787     -2.78028031422386     -0.00094551198485
  H   0.00000224697944     -4.45459215523285     -0.00150546599396
  C   3.75180121176869      1.13212067574958      0.00003324435796
  C   4.17859011699169      2.47775504384833      0.00042836305207
  C   5.54174737248276      2.74033100051301      0.00043816897222
  C   6.46427631421425      1.67434258185410      0.00005849160113
  C   6.03189992168896      0.34747791370350     -0.00033077944728
  C   4.66140363739964      0.04470335152230     -0.00035210861489
  B   3.91429492150498     -1.37797456827899     -0.00075210910928
  C   4.14158484113694     -2.22367252759169     -1.37005143275773
  H   3.54895449300555     -3.15361580395725     -1.39044046708263
  H   3.90918908711347     -1.65131434394714     -2.28712584848663
  H   5.20544995199306     -2.51652848098896     -1.44438834237980
  C   4.14173335431463     -2.22451885315968      1.36799888816084
  H   3.54912216310175     -3.15448552320806      1.38787007513233
  H   5.20561132067577     -2.51740069554884      1.44205102654158
  H   3.90941715210997     -1.65273507009896      2.28545177506211
  H   6.76837904483366     -0.46071534229754     -0.00062021807242
  H   7.53503289660618      1.89681654732726      0.00007120281463
  H   5.90095464609430      3.77162748751471      0.00073947667840
  H   3.46346972449320      3.30108561398677      0.00072182939586
  H   -3.46346149577921      3.30108707081305      0.00102599338776
  H   -5.90094616383278      3.77162999891573      0.00124484554385
  H   -7.53502529864088      1.89681973561000      0.00070145498930
  H   -6.76837243066851     -0.46071250367636     -0.00006216514149
  C   -4.14161497942261     -2.22451580703834      1.36834259121286
  H   -3.54899943042139     -3.15448073231369      1.38816757922357
  H   -3.90922694912075     -1.65272986980202      2.28577590043492
  H   -5.20548610899186     -2.51740083167939      1.44248018979419
