88
Coordinates from ORCA-job ./opt_b3lyp_cdz
  C   -7.46061480458106     -5.34702643248137      0.53701972769046
  N   -7.41712317687955     -3.93893818160631      0.17869826770190
  C   -6.21705626065619     -3.25900803515715      0.18856941369123
  C   -4.99053774596666     -3.94135863704386      0.42685558368837
  C   -3.80551354873707     -3.23408657453438      0.43056956293574
  C   -3.71723116317675     -1.84003218813745      0.20523143599078
  C   -2.40611154511372     -1.19947224038988      0.23301007906207
  N   -2.37961473385183      0.14548702284832      0.46869875193406
  H   -5.11664804304949      2.72581963691219      0.51184088167535
  C   -5.89052276445655      2.43736010197699     -0.20459427285461
  C   -5.94071940053925      1.10106378939009     -0.65575885997193
  C   -6.92299180425500      0.74906184272098     -1.60319572149091
  C   -7.84052504834168      1.70169252668045     -2.05386564954573
  C   -7.79621487002370      3.01951965602309     -1.59032876777560
  C   -6.80470224079633      3.38052398569040     -0.67062140845805
  H   -6.74338784656749      4.40901795273253     -0.30568905199052
  N   -1.26302621303813      2.17888081344435      0.76186835831110
  C   -1.25443209987909      0.85630989544724      0.56061385803044
  N   -0.02124511174458      0.21074361345162      0.44454493748686
  C   0.00062189896616     -1.11528990910333      0.19204996132719
  C   1.19147088055343     -1.83623017838218     -0.04159685682993
  C   0.72511576606618     -3.15279869570701     -0.41065832389168
  C   -0.66662451021319     -3.18468538866271     -0.36583529486987
  C   -1.16846048796152     -1.89027680445155      0.03459968240617
  H   -1.26788670293595     -4.04891469987923     -0.63700571296776
  H   1.34717509885910     -3.98879277655476     -0.72078646088027
  C   2.40620589572682     -1.08944056338510      0.07666195121913
  C   3.74066758808468     -1.66969564301090     -0.03795117649168
  C   3.90854582886079     -3.05579565833312      0.18972054782621
  C   5.12265144086500     -3.70747303023714      0.11053394707411
  C   6.29697998351753     -2.97137368359543     -0.21422845550661
  N   7.52456298657075     -3.59488361920343     -0.29995769608203
  C   7.65902547060857     -4.99438087442105      0.06929680666389
  H   7.00569775256565     -5.63777700538762     -0.54418556982901
  H   8.69519137696336     -5.31260116202914     -0.10362607714697
  H   7.41526851649941     -5.18041710289186      1.13323587589148
  C   8.72836297271351     -2.80744952778785     -0.50525397898129
  H   8.66326190036051     -2.21076373218819     -1.43087246298473
  H   8.92924165149864     -2.10957671328320      0.33070428797925
  H   9.58836875173933     -3.48256126182615     -0.60261481684032
  C   6.17038615814325     -1.58369982890544     -0.42057955750728
  C   4.93476331045490     -0.91292431888245     -0.34447738566636
  N   4.84628992829691      0.44911260652862     -0.52972841389532
  C   5.74876275967951      1.36175984473864     -1.08820847438408
  C   6.68804856481964      1.03933471133274     -2.08840515162099
  C   7.51741153806347      2.02955684211700     -2.62160018817403
  C   7.42559500277171      3.35546594060856     -2.18949952554089
  C   6.47404412325524      3.68570761194496     -1.21739000289293
  C   5.64801802902406      2.70607719819650     -0.66970599317470
  H   4.90288596432511      2.97176077366023      0.08501115148809
  H   6.37456150116338      4.71930259951216     -0.87605664633439
  H   8.07781219497001      4.12308064021921     -2.61163439604570
  H   8.23613836558617      1.75701176696439     -3.39915112207169
  H   6.74522572823209      0.02270581972956     -2.47686427597465
  H   3.96388318299589      0.83345392418745     -0.16867215475369
  H   7.05687370152412     -0.98344779491702     -0.59692492126722
  H   5.16642475597204     -4.77302201902801      0.32577365658008
  H   3.03805160265577     -3.63615906395290      0.49175078677143
  N   2.33441926371928      0.25315118814192      0.31541673956082
  C   1.18612464967642      0.91213318346997      0.47951152991834
  N   1.14752249953855      2.23425616953692      0.68001348909173
  C   -0.06777714339257      2.78707649029586      0.81609793847924
  C   -0.09400426515275      4.27448066550776      1.05034475479502
  N   1.04246811904721      4.94710315703605      0.80510430659616
  C   1.00375067446400      6.26619650664319      1.01251887660159
  C   -0.14194135086795      6.92229402881431      1.46596962847141
  C   -1.26092829688767      6.11870109387860      1.69119903830085
  N   -1.25178233561426      4.79889738987811      1.48472365055993
  H   -2.20299514637807      6.54748753348659      2.05177567303182
  H   -0.16155918456755      8.00050154083219      1.63478944135902
  H   1.92824531988904      6.81770977355633      0.80643457336333
  H   -8.51699277319412      3.75793650912458     -1.94818532303483
  H   -8.59157983480317      1.40724550401944     -2.79185340217966
  H   -6.94701839860526     -0.25962076030621     -2.01549044291478
  N   -4.95250161139282      0.22809528938014     -0.18497974785348
  C   -4.96362218582130     -1.13796577249935     -0.01086619055325
  C   -6.16910369634583     -1.86561214458272     -0.01147440298737
  H   -7.09225821419512     -1.30633797309205     -0.12300595975179
  H   -4.06504236932371      0.65104283018865      0.11591465487730
  H   -2.89101179229092     -3.77517046122738      0.66815352972847
  H   -4.97036277726299     -5.00913324515841      0.63444364213139
  C   -8.66724102199905     -3.20773745466476      0.06135565929453
  H   -9.49987451681884     -3.92171634785153      0.01950063417200
  H   -8.84159386520668     -2.52258513510872      0.91353448771758
  H   -8.69409203958310     -2.60574551078518     -0.86282973196590
  H   -8.49021583210819     -5.71243098591199      0.43113683734156
  H   -7.13576807007315     -5.53231751006385      1.57916614866940
  H   -6.82168864881004     -5.95232625877598     -0.12827378053177
