86
Coordinates from ORCA-job ./opt_b3lyp_cdz
  C   -9.82669454299623      0.04915160785028      1.21814534497915
  N   -8.85344238339947     -0.80847287079546      0.56243203233799
  C   -7.54166256246325     -0.38904434884986      0.44315378508835
  C   -7.07176633818654      0.77458963637756      1.10482803793840
  C   -5.74090671176969      1.14721998669309      1.00046979224090
  C   -4.78909720782608      0.40070156054926      0.27723301949086
  C   -3.37472751804415      0.83224149889490      0.36232787968909
  N   -3.19506587158672      2.17711646646550      0.33411186540434
  C   -1.98435838021910      2.72984622734494      0.44037120124299
  N   -0.85522711140233      1.91557040806113      0.62278762252994
  C   -1.01759351664134      0.58034675690417      0.68970838514731
  C   0.03489610183341     -0.32893533195818      0.91084514786312
  C   -0.62363002306819     -1.62144496025288      0.88198177613385
  C   -1.98733562237389     -1.45162675345206      0.67793880779647
  C   -2.27743623477911     -0.04409006796355      0.54395299205953
  H   -2.71488536240381     -2.25372003097794      0.59730609243339
  H   -0.13584710345893     -2.58871643176222      0.97247614046775
  C   1.33305291753093      0.25059002438301      1.05622681021732
  N   1.46799634173633      1.60570332981005      0.92637254738864
  C   0.44198352333767      2.43283181110403      0.72725347139566
  N   0.59940124604634      3.76191057109936      0.63228115168827
  C   -0.52329507719723      4.47367411771795      0.46430951507516
  N   -1.79037486530848      4.05728699201135      0.36995968628163
  H   -0.38100071287029      5.55823868543518      0.39482742196102
  C   2.54506229241724     -0.50795157920318      1.34975676948507
  C   2.43640429811652     -1.78402744825438      1.95069095349965
  C   3.51883344902992     -2.57927826945192      2.27046102106983
  C   4.83713050698221     -2.12237373880832      1.98897225892782
  N   5.93692887597405     -2.90238738289362      2.27699629848581
  C   7.27661387383335     -2.37645102546386      2.07328384349748
  H   7.50602139892267     -1.52274970581446      2.74066096127576
  H   8.00872041861913     -3.17082084834182      2.26890637720429
  H   7.41514849799284     -2.03766607162995      1.03339726905933
  C   5.77667202909432     -4.14478932974494      3.01361816066607
  H   5.36147727576826     -3.98823623645538      4.02805370994346
  H   6.75633986427707     -4.62885117358160      3.11771854100213
  H   5.11188478527674     -4.84704452326153      2.48206099842506
  C   4.98285027281449     -0.83856537458515      1.42752425676383
  C   3.88309310907485     -0.02724982262587      1.09861918028933
  N   4.07478865235626      1.21986879053023      0.53796569638697
  C   5.29812311202072      1.81978494857988      0.17922449522284
  C   5.66124586553324      3.04543880452037      0.75271276760511
  C   6.83130879650545      3.72226419993873      0.36707602840534
  C   7.67945154387052      3.19018785371024     -0.59667031565594
  C   7.34256278721710      1.96491820070792     -1.20585140536035
  C   8.03401100884731      1.26461616504453     -2.26164463627378
  C   7.38954038644636      0.13465815158844     -2.65950564074677
  S   5.90463269281281     -0.16459570327598     -1.77412822517183
  C   6.15248450250068      1.29392922163986     -0.81684747796886
  H   7.69168384970274     -0.56633805965034     -3.43637462261288
  H   8.96981474882915      1.61355874596256     -2.70039580960222
  H   8.58869341073724      3.71659856363633     -0.89614728375592
  H   7.07416920869626      4.67617276237539      0.84092364036268
  H   5.00828401847078      3.47057059293986      1.51814527467235
  H   3.25195693741023      1.82811164750805      0.63635425089681
  H   5.97466431347686     -0.43086499881854      1.25637628497713
  H   3.34607723976291     -3.53889864196169      2.75323538773336
  H   1.44516222775144     -2.14228792063116      2.22268987504240
  C   -5.26928888873489     -0.71138866876815     -0.45674837392076
  C   -6.61732309853688     -1.08399518630383     -0.37004514911014
  H   -6.94849415602258     -1.91704159773872     -0.98972107155793
  N   -4.43313005111543     -1.47800257484127     -1.30149266705315
  C   -3.73121436880778     -0.97166665028593     -2.41549102431794
  C   -3.76053843957697      0.36442895895340     -2.83212202475216
  C   -3.03499309951768      0.78500304274879     -3.96300940424247
  C   -2.28215664760966     -0.10302642034758     -4.72067289488676
  C   -2.23888707823394     -1.45747094572212     -4.33043412504599
  C   -1.54162202069729     -2.56189695652564     -4.94557729276980
  C   -1.71671394868774     -3.74051111532571     -4.28936967180799
  S   -2.72862857361233     -3.58861280994170     -2.86289830601945
  C   -2.94882410227249     -1.86658486590195     -3.17653263437697
  H   -1.29995941194194     -4.71464525752727     -4.53984266479695
  H   -0.93345805614878     -2.46039134397858     -5.84547513244456
  H   -1.73040272738992      0.23386659555273     -5.60078020768149
  H   -3.08296247228720      1.83813498275109     -4.24970073864040
  H   -4.35571995531971      1.08981115404507     -2.27797173623725
  H   -4.80525651594699     -2.40825867662608     -1.47498006967184
  H   -5.39147340748687      2.04202412506997      1.51696060532457
  H   -7.74263607693711      1.38571989809837      1.70591168449451
  C   -9.33606578587128     -1.91472824216315     -0.24433668533835
  H   -8.73060656272987     -2.82160373920193     -0.07740640803552
  H   -10.36894612784939     -2.14845041049440      0.04538534044832
  H   -9.32411255454315     -1.69507029544686     -1.33092298828045
  H   -9.53677108250965      0.25886705744192      2.26152330931992
  H   -9.95892687005366      1.02022781496203      0.70182332878120
  H   -10.79787410572381     -0.46225984700273      1.24042263633359
