56
Coordinates from ORCA-job ./opt_b3lyp_cdz
  C   3.05402152961198      1.70548321952901      2.04079915061204
  N   3.35187028447870      2.14986185609563      0.67907762089148
  C   4.16073279649543      1.29857046016606     -0.10884955521913
  C   5.40432191399409      1.72836691729004     -0.61213852667316
  C   6.22428817625734      0.87415003675344     -1.35178609265976
  C   5.83967982035612     -0.44839224875026     -1.58140151434120
  C   4.60861451677949     -0.88788546681811     -1.09738046218836
  C   3.73654966299935     -0.02769704762931     -0.40701044798008
  C   2.38696194110168     -0.56831969215899     -0.08483929541626
  N   2.37511902754826     -1.85116196916705      0.35221217069244
  C   1.23547478300130     -2.50740307373990      0.59569353291419
  N   0.00020888364433     -1.86180762882788      0.40469179222363
  C   -0.00002791311458     -0.58905177101436     -0.02224907759692
  C   -1.17811098546041      0.13549159825252     -0.30239362571331
  C   -0.69482398492099      1.40380942414146     -0.80679547672508
  C   0.69404357904365      1.40411784161367     -0.80665216162544
  C   1.17779279751323      0.13600173527457     -0.30218446366632
  H   1.32504505620823      2.22590767471851     -1.13308043095373
  H   -1.32612356055147      2.22532065424231     -1.13334906255547
  C   -2.38701406742139     -0.56934954938378     -0.08525614897515
  N   -2.37469729637766     -1.85218495938874      0.35179942144461
  C   -1.23481392155896     -2.50793483192809      0.59547781937805
  N   -1.21077508259627     -3.77889281031263      1.02067942494363
  C   0.00066721128946     -4.31749511854681      1.20744031459656
  N   1.21190943425331     -3.77837046039670      1.02088942985235
  H   0.00085988111323     -5.35492775585071      1.56034455445819
  C   -3.73676747571515     -0.02930826293713     -0.40769521077955
  C   -4.16156654223745      1.29678266862224     -0.10963561802733
  N   -3.35322077537693      2.14842446811031      0.67843799001544
  C   -3.05536937258843      1.70415549963813      2.04019637639409
  H   -3.87429110520688      1.96657049550379      2.74369441634274
  H   -2.91403784116108      0.61781093037711      2.07807220522584
  H   -2.12848978849879      2.18444055331072      2.39462863799772
  C   -3.62124821948176      3.57560896831371      0.62570476762284
  H   -2.77205607980815      4.10933252625200      1.08165067526551
  H   -3.71527133964482      3.91052674982812     -0.41771750522085
  H   -4.53832433457370      3.87881376261866      1.17645268333353
  C   -5.40523689258399      1.72606183551121     -0.61317554321086
  C   -6.22470040830045      0.87148815085974     -1.35297453316435
  C   -5.83949332755960     -0.45089668631772     -1.58248915316646
  C   -4.60833975900313     -0.88986911978766     -1.09822078714557
  H   -4.27675415448024     -1.91410060553406     -1.27324845951274
  H   -6.48528354794301     -1.13209347082694     -2.14013097162865
  H   -7.18330973829210      1.24007202821853     -1.72702278117485
  H   -5.75429471522721      2.73585010265787     -0.39852146939573
  H   4.27749132401475     -1.91225182928989     -1.27248942699799
  H   6.48586031758112     -1.12930864247436     -2.13893316515943
  H   7.18282045131663      1.24313718850917     -1.72563458554362
  H   5.75291275009462      2.73830065416196     -0.39740226865898
  H   2.76982815618811      4.11055471088397      1.08215536194089
  C   3.61931394079653      3.57716242873140      0.62637033422998
  H   3.71337954506890      3.91209763087649     -0.41704328394821
  H   4.53616852557922      3.88076208292156      1.17726692029932
  H   3.87278056592835      1.96815047594126      2.74439270472369
  H   2.91302230439928      0.61909425535639      2.07864795710397
  H   2.12694965692957      2.18547385530064      2.39512644542304
