68
Coordinates from ORCA-job ./opt_b3lyp_cdz
  N   -1.19250623578746     -4.49769454847275     -1.86183807469085
  C   0.05218652257816     -3.97252547560577     -1.71249457649390
  O   1.09264834099411     -4.58964574757588     -1.85414960102109
  C   0.03452515424827     -2.48593316679848     -1.34112622494971
  N   1.23206143337910     -1.91715889544988     -1.18561440845824
  C   1.23866510114735     -0.61746878293240     -0.86610098278842
  N   0.01018489407625      0.04273060824680     -0.73730869489800
  C   0.00631681982933      1.33823153351030     -0.36694916177540
  C   -1.17886876758728      2.06539030686943     -0.11808575924444
  C   -0.70208389352085      3.33584782074587      0.38227449961212
  C   0.68845738221250      3.33870466161396      0.39435884468021
  C   1.18165666492122      2.07083849655011     -0.09793504291638
  C   2.40863932987787      1.37288468414491     -0.30915145047717
  N   2.37063434174076      0.05843717618291     -0.66692876994720
  C   3.73519767709730      1.98236491187174     -0.16304502055846
  C   3.84963697516012      3.38633914231778     -0.30741559176637
  C   5.05477975195730      4.05655577005670     -0.17368889254551
  C   6.21230633988323      3.31203790743545      0.10674645196199
  C   6.15439541270054      1.93386824645921      0.23992217992599
  C   4.93420474416488      1.22295550262768      0.10541268678609
  N   4.88899919530841     -0.14681397988064      0.19941461440525
  C   5.82698984220924     -1.05070413068291      0.72518114391564
  C   5.84806381120251     -2.35207710861256      0.18467077366461
  C   6.71376287492145     -3.31763957324121      0.69653739252434
  C   7.58240247720022     -3.00811677805480      1.74910629754293
  C   7.55474719188752     -1.72266035842292      2.29758118181352
  C   6.68214780580433     -0.75034090543772      1.80265179273765
  H   6.64435442486487      0.23168444957803      2.27493244436243
  H   8.21024751567906     -1.47119266691801      3.13533853933248
  H   8.26558974084790     -3.76333631454909      2.14355181451248
  H   6.71123941395729     -4.32060595969249      0.26285334842180
  H   5.17257808937558     -2.59827721523687     -0.63881403964791
  H   4.03582213713589     -0.54680284507237     -0.20427802136447
  H   7.07229538444796      1.37175606482279      0.40450428181625
  H   7.17927804117792      3.81406267027936      0.19421906770306
  H   5.10421295720835      5.13824425067646     -0.30877105249625
  H   2.95887847699651      3.95092152640194     -0.57947052525093
  H   1.29776777830426      4.16194324821868      0.75871203337719
  H   -1.32221459290349      4.15600479857708      0.73511460620975
  C   -2.39659065062428      1.36353633576250     -0.34937031683646
  N   -2.35397353624957      0.04729358314247     -0.70585156518946
  C   -1.21112484500802     -0.61916240788587     -0.88531522859377
  N   -1.17881976855981     -1.91972753980467     -1.20510780345416
  C   -3.72458611443389      1.98031154141253     -0.22118669731818
  C   -3.83472376395985      3.38023122214984     -0.39788465339571
  C   -5.03744320321718      4.05756554454273     -0.26926793013387
  C   -6.19389270920312      3.32522433474925      0.04176384246268
  C   -6.13858879038489      1.94910153724597      0.20291066165205
  C   -4.92264371783877      1.23367512529864      0.06838965534884
  N   -4.88523491969580     -0.13795013423121      0.18164923262069
  C   -5.82461561489995     -1.00973212478493      0.75619396873433
  C   -6.59205098123900     -0.67979079256507      1.88979546470772
  C   -7.47331940603904     -1.61424977540470      2.43791109187018
  C   -7.59680917036325     -2.89351471821962      1.88681723916400
  C   -6.82030624971251     -3.23247164172544      0.77372331976056
  C   -5.94866181757907     -2.30158129947861      0.20862781805017
  H   -5.35573700373459     -2.56331820295506     -0.67158655390096
  H   -6.90015043662934     -4.22919269581160      0.33258255212624
  H   -8.28539883036239     -3.61994924259515      2.32343523502321
  H   -8.05899050957214     -1.33996731185752      3.31901393942599
  H   -6.47860586025997      0.29863526276857      2.35825309819272
  H   -4.04294339503559     -0.55244940930856     -0.22790627911988
  H   -7.05552157353325      1.39281086062276      0.39357296152647
  H   -7.15762196714064      3.83297110921667      0.13131341588608
  H   -5.08409453570709      5.13609868170351     -0.42852181839776
  H   -2.94329858812332      3.93531482954572     -0.68731698660963
  H   -1.28113022080770     -5.47779404706258     -2.09633071169348
  H   -2.00471148528426     -3.91201142032219     -1.71158243402159
