71
Coordinates from ORCA-job ./opt_b3lyp_cdz
  C   1.49953760955991      5.81125235957523      1.85060884833817
  N   1.24575217293090      4.41333643526374      1.57411965965060
  C   -0.01026548929722      3.90275034042354      1.46539699557243
  O   -1.04550479157805      4.53885317292772      1.58698513493885
  C   -0.01888781821850      2.40036792403118      1.16644081190367
  N   1.18312315665570      1.80533326677760      1.05132168160082
  C   1.19181697896197      0.49086082728629      0.79544711045041
  N   -0.04148861172061     -0.15610066037291      0.68647205528409
  C   -0.06224386996216     -1.46791478183161      0.37926991051097
  C   -1.25169397206168     -2.19200401262794      0.15287185769078
  C   -0.78356877889665     -3.49084955496611     -0.27988015394955
  C   0.60680212148077     -3.51170929535271     -0.27565967013934
  C   1.10855972155130     -2.22683423045058      0.15966376452393
  C   2.33958160555348     -1.53597708801869      0.35027573243435
  N   2.32205579418767     -0.20350935074661      0.64258646233578
  C   3.65595933775271     -2.18157820081144      0.24529675004169
  C   3.74293849379994     -3.57300360200953      0.48914813548422
  C   4.93294688239276     -4.27688052955713      0.38723272084130
  C   6.09999999149965     -3.58096907088464      0.03498625994695
  C   6.06751323963302     -2.21348388084505     -0.19237787302414
  C   4.86500170618935     -1.47114196655632     -0.08637482532364
  N   4.85080302892162     -0.10610958404478     -0.26571083926674
  C   5.80147264346925      0.72002448906205     -0.88715364799651
  C   6.55575647146459      0.32201479976503     -2.00766844261924
  C   7.44952432730901      1.21311361124090     -2.60547327620317
  C   7.59879914107021      2.51521402049863     -2.11787918608954
  C   6.83559048006428      2.92133139145950     -1.01815323210697
  C   5.95159039021385      2.03446293176686     -0.40360762646571
  H   5.36915406952835      2.34891605369065      0.46628209663487
  H   6.93561816492114      3.93666375090741     -0.62631697291600
  H   8.29703979597920      3.20735972426895     -2.59317086522414
  H   8.02462174174874      0.88616765083999     -3.47550952898624
  H   6.42244021679979     -0.67581735237542     -2.42746884585284
  H   4.01828042648238      0.34241080993886      0.12768288284757
  H   6.99265853095453     -1.68313450100637     -0.41469593844172
  H   7.05421094212450     -4.10936205517578     -0.03491983609866
  H   4.96182128268547     -5.34710263458185      0.59834672822984
  H   2.84377860073365     -4.09769306745528      0.80970936395405
  H   1.21051673913307     -4.35870957512117     -0.59162801201771
  H   -1.40935437478109     -4.31997967462226     -0.60029794887252
  C   -2.46496006352679     -1.46324478905935      0.33737358709568
  N   -2.40192213862319     -0.13384852439532      0.63050703927851
  C   -1.25727331288211      0.53121502245536      0.78997228562835
  N   -1.22669144434612      1.84466458307477      1.04559558884703
  C   -3.80297609864502     -2.05562558079292      0.22972848654737
  C   -3.94054068498865     -3.44875578930130      0.44246618768850
  C   -5.15815486511777     -4.10327848055744      0.35002255209479
  C   -6.30488815761609     -3.35278312261750      0.04267081863339
  C   -6.22421871391402     -1.98385082272002     -0.15729488588385
  C   -4.99083070839494     -1.28899236065468     -0.06649609770573
  N   -4.92251070915528      0.07363662897801     -0.22705931201275
  C   -5.84825591404755      0.96822644531909     -0.78891625850538
  C   -5.83855484222191      2.29513695334912     -0.31398342360986
  C   -6.69070851780480      3.25095662151520     -0.86525340914062
  C   -7.57605392485865      2.90677598512361     -1.89286009506841
  C   -7.57882401889503      1.59535492314973     -2.37670749568649
  C   -6.72012598310368      0.63171506900180     -1.84205503090148
  H   -6.70616206250966     -0.37300925632455     -2.26529892828609
  H   -8.24765686747362      1.31555286313131     -3.19471603536302
  H   -8.24857426102233      3.65483000003979     -2.31809263846947
  H   -6.66424139442542      4.27401935174719     -0.48225777957046
  H   -5.14979101985030      2.56866617895690      0.48965629335487
  H   -4.05892672414995      0.47705326881872      0.15040207210946
  H   -7.13361550828608     -1.41418417436316     -0.34181166985651
  H   -7.28110808320538     -3.84124663861278     -0.01320112380898
  H   -5.22514195955399     -5.17619367674880      0.53740410508927
  H   -3.05751465011051     -4.01533165526243      0.73483750920451
  H   2.00955450798205      3.75777177992004      1.44420312666209
  H   2.07019557105905      5.93811507966803      2.78697006992406
  H   0.52810572431725      6.31328218940431      1.95312236767196
  H   2.06463505632666      6.28732958835274      1.03039426132748
