72
Coordinates from ORCA-job ./opt_b3lyp_cdz
  C   8.48903199951996      0.19754966710195     -1.90189223576552
  N   7.51610043034879      1.12451570950867     -1.34866638524741
  C   6.30436998476981      0.64699298287257     -0.88187472560573
  C   5.42904594136860      1.47550618846009     -0.13912645605932
  C   4.17343401788419      1.03633606825415      0.30682561530040
  N   3.35632918483767      1.88820272140766      1.08611070902961
  C   2.99755766182715      1.42376181512116      2.42523017689752
  H   3.78663338416912      1.67272782984185      3.16726290898754
  H   2.05703561855752      1.90092519802438      2.74683149059760
  H   2.85168530128590      0.33799502761259      2.43824468073212
  C   3.63535325063875      3.31232863985683      1.06922797886983
  H   2.77566490724539      3.84385814907990      1.50825485417122
  H   4.53591203139244      3.59987763995502      1.65591429506116
  H   3.76591626831603      3.66602041808702      0.03600665501325
  C   3.74399528941059     -0.28646733296151     -0.00792843036034
  C   4.66602711061278     -1.12788825525615     -0.66048034262622
  C   5.90660391866236     -0.69442468887882     -1.10203381748399
  H   6.55197885853929     -1.39395722880760     -1.63011234492296
  H   4.35794270359957     -2.15682349940207     -0.84882535789365
  C   2.39465752287801     -0.83947314363148      0.24205307098194
  N   2.37291268651726     -2.16307387897674      0.55297923859598
  C   1.23518248440802     -2.83721445520019      0.72838939992103
  N   1.21184528389112     -4.14751365942049      1.02147865534485
  C   0.00004323964204     -4.70049141765483      1.15220039837059
  N   -1.21173137169842     -4.14769364541816      1.02060633379206
  C   -1.23512569632344     -2.83742105043802      0.72751444776982
  N   0.00001761498639     -2.17597831339174      0.60967326649510
  C   0.00005678448166     -0.86557249376815      0.30747828233725
  C   -1.17908261157356     -0.12095230754038      0.08822007118882
  C   -0.69455927968242      1.18153991197577     -0.31703581490329
  C   0.69474220038949      1.18162332754893     -0.31661997825790
  C   1.17921765108153     -0.12074052640994      0.08896474407230
  H   1.32519088952400      2.02541967102381     -0.58090786482930
  H   -1.32506067553774      2.02519615799115     -0.58161990566649
  C   -2.39450998347814     -0.83976969615070      0.24075260526021
  N   -2.37286317056635     -2.16341637318183      0.55149894001026
  C   -3.74388619258460     -0.28665727551502     -0.00896740336146
  C   -4.66611839081508     -1.12771309545724     -0.66165103369560
  C   -5.90710549435002     -0.69405594008679     -1.10192256266381
  C   -6.30510822053750      0.64698661007681     -0.88003670531671
  N   -7.51742157798165      1.12457434605690     -1.34525759496615
  C   -8.49043815390963      0.19788134190913     -1.89879463730764
  H   -8.81643253276964     -0.56736702901710     -1.16729551056006
  H   -9.37580297199011      0.75885082285919     -2.22557424009696
  H   -8.08618497256252     -0.32987434209524     -2.77928842174557
  C   -7.95666666822743      2.46207362224802     -0.99303468579844
  H   -7.21238402508709      3.21764305784960     -1.29615097550366
  H   -8.89130500449163      2.68621216213507     -1.52395912015941
  H   -8.14013946821775      2.58609549204868      0.09352367080033
  C   -5.42936317996419      1.47510925788676     -0.13731128780911
  C   -4.17325107457702      1.03583244615182      0.30703914711695
  N   -3.35523708611166      1.88715980646651      1.08602123349816
  C   -2.99644210193342      1.42222722685598      2.42493504274639
  H   -3.78582816802277      1.66999825382009      3.16705596964882
  H   -2.84936310891893      0.33661773308275      2.43735631033999
  H   -2.05638398577049      1.90009933115575      2.74680871193231
  C   -3.63360276815744      3.31142887510605      1.06949860734426
  H   -3.76546534245982      3.66511506867905      0.03644057726971
  H   -2.77306560618953      3.84265923812319      1.50724415120787
  H   -4.53322830095429      3.59945383298809      1.65739384421484
  H   -5.75612838575838      2.47132202572845      0.14514120111344
  H   -6.55273792404966     -1.39319066186888     -1.63021636970589
  H   -4.35798695453978     -2.15643579561907     -0.85106814333180
  H   0.00004994123870     -5.76888161318136      1.39792055258855
  H   5.75590506424231      2.47200019207342      0.14218653652579
  C   7.95525543043781      2.46247890881902     -0.99815013998561
  H   8.88912692556160      2.68654977128142     -1.53045836995237
  H   8.14005134415179      2.58754616022820      0.08807047139714
  H   7.21031119136392      3.21749704917292     -1.30099775554658
  H   9.37374785910730      0.75852042633623     -2.23043313447016
  H   8.81622180585656     -0.56648604801381     -1.16965250653579
  H   8.08415320200305     -0.33167151108254     -2.78120856016632
