24
Coordinates from ORCA-job ./opt_b3lyp_cdz
  C   -4.86987853514952     -0.00017970446655      0.00027550088859
  C   -3.65521628827466      0.00023197069117     -0.00013545485177
  C   -2.22254570923251      0.00018305690528     -0.00013357496392
  C   -1.51490354475608     -1.20421887084969     -0.00013978972848
  C   -0.10352119833239     -1.22348384011021     -0.00010844925357
  C   0.62156734546976     -2.43701525401857     -0.00010361315819
  C   2.00904189135309     -2.43578796048040     -0.00006955086103
  C   2.70526559696629     -1.23666655995168     -0.00004101303560
  C   2.01905185542355     -0.00003685271474     -0.00004742888561
  C   2.70539352140344      1.23652544923477     -0.00002130179315
  C   2.00929454591643      2.43571560660560     -0.00002556369727
  C   0.62181691092956      2.43708596506518     -0.00005683805447
  C   -0.10339479137542      1.22363199778706     -0.00008621087939
  C   -1.51478385580599      1.20450985182868     -0.00012054633706
  H   -2.03553220529047      2.15998454299988     -0.00012297948870
  N   0.60574456333148      0.00003750254978     -0.00008052231806
  H   0.04850098401981      3.36320798497971     -0.00005985909811
  H   2.55463218034442      3.38281159077894     -0.00000367750004
  H   3.79424728099427      1.20449634609971      0.00000329129574
  H   3.79412258226359     -1.20474992254187     -0.00001307473491
  H   2.55428162499738     -3.38294031032176     -0.00006467617709
  H   0.04815416673206     -3.36307708678094     -0.00012617724801
  H   -2.03575565343811     -2.15963627816383     -0.00015677455554
  H   -5.94252241342946      0.00019878134611      0.00035780074769
