56
Coordinates from ORCA-job ./opt_b3lyp_cdz
  C   -2.38676543343934     -2.82175339955679      2.05707000073404
  C   -2.58894112718660     -3.79331242151779      1.02889070805532
  C   -3.25631631780861     -3.16830460852844     -0.00256259257252
  N   -3.45550001267532     -1.84112867907791      0.34924321505256
  C   -2.92905020492317     -1.63494197060350      1.61541468001999
  H   -3.02104679781257     -0.66662575539708      2.09848979242239
  C   -4.19203815392384     -0.89099732465725     -0.40790467444408
  C   -5.44097323177960     -1.27285323384498     -0.92259584067778
  C   -6.23582998371027     -0.36064840431059     -1.61503940085305
  C   -5.80972885616232      0.96311517487977     -1.76331046054395
  C   -4.57665435903341      1.35038414280252     -1.24399579931519
  C   -3.72894865352384      0.43049310236944     -0.59824551566407
  C   -2.37979335818975      0.92204041739383     -0.19386910877905
  N   -2.37610546447617      2.12940281989473      0.41542744762981
  C   -1.23589024366241      2.74403352399371      0.75511904524116
  N   -0.00085266664825      2.13001121708016      0.47489884004998
  C   -0.00024552252976      0.93189604725912     -0.12714923701049
  C   -1.17637285349024      0.25135742744957     -0.50700592863419
  C   -0.69341719101766     -0.93780980001681     -1.17604211421390
  C   0.69487227830906     -0.93726795226420     -1.17570900338857
  C   1.17659806482570      0.25224001899696     -0.50638880333356
  C   2.37934649104709      0.92381458499704     -0.19257902035133
  N   2.37444569320657      2.13116750901636      0.41670974801644
  C   1.23357895106143      2.74494728609856      0.75578832085031
  N   1.20916805346289      3.94161161659158      1.35654524049160
  C   -0.00202218864676      4.44861793592021      1.61896773022945
  N   -1.21270010471189      3.94072437367379      1.35587395674010
  H   -0.00251508777813      5.42465529874647      2.11665225949966
  C   3.72906831309373      0.43323921532274     -0.59627846037174
  C   4.57636886996733      1.35367657991265     -1.24176152440498
  C   5.80997400784552      0.96725459262947     -1.76045982111381
  C   6.23699186410458     -0.35616716063850     -1.61181065041259
  C   5.44250126366531     -1.26887785333266     -0.91960566661519
  C   4.19304658478864     -0.88788261285649     -0.40554188647304
  N   3.45685640710995     -1.83844837575293      0.35139801017551
  C   3.25879239202576     -3.16581221813758     -0.00032068656359
  C   2.59144917233812     -3.79118113279668      1.03093602597119
  C   2.38812244100584     -2.81963580096636      2.05890081951634
  C   2.92968457421248     -1.63247231799737      1.61730579905565
  H   3.02075139362434     -0.66401941542568      2.10028293613921
  H   1.90274360042017     -2.97521670557500      3.01959784048731
  H   2.27334524297995     -4.83126115370733      1.04121323025322
  H   3.58494578650754     -3.53394189341417     -0.96908367868693
  H   5.79786241599415     -2.28399707283090     -0.73527565141008
  H   7.20518392580640     -0.67285761163827     -2.00628234012279
  H   6.43760009488582      1.69704694733501     -2.27611162168242
  H   4.22886029608273      2.38237647915771     -1.34412505244226
  H   1.31990257163045     -1.71853531070557     -1.60088858356635
  H   -1.31764060513421     -1.71955822951402     -1.60151970865931
  H   -4.22986355579866      2.37935548651762     -1.34605445688979
  H   -6.43765980561054      1.69251601175104     -2.27914502743486
  H   -7.20360104452729     -0.67801678874753     -2.00999816632524
  H   -5.79565712272790     -2.28826458223020     -0.73856942663882
  H   -3.58179329375790     -3.53654749019592     -0.97150978439930
  H   -2.27007751398644     -4.83315997606042      1.03917182317984
  H   -1.90166425202827     -2.97710260629154      3.01794449068466
