70
Coordinates from ORCA-job ./opt_b3lyp_cdz
  N   4.73703751660554      0.17291123034229      0.59370605172764
  C   4.80600765380874      1.53412284943319      0.40103694073824
  C   6.02631220534106      2.23923193718669      0.55133297794942
  C   6.11239807898634      3.60280739090898      0.31415278343736
  C   4.98446597562123      4.33258555485635     -0.09237643395941
  C   3.77815716814953      3.66547274431627     -0.24135915351134
  C   3.63640713525741      2.27993538670437      0.00827715631218
  C   2.30742139850501      1.67346274292980     -0.15743970525887
  N   2.26679669087364      0.34080356332838     -0.43902858456542
  H   6.29662623291370      0.71594152721152      2.77832758613446
  C   6.37963717031422     -0.29849095146270      2.38687060358329
  C   5.62513304254362     -0.68428381607620      1.26200806455473
  C   5.70458212606910     -2.02023302449806      0.82068311458310
  C   6.52396916436181     -2.93761626697973      1.47763175358952
  C   7.29074431583192     -2.54444130111609      2.57992649060391
  C   7.20804093880494     -1.22255623440809      3.02775202731957
  H   7.78430344086992     -0.90391097489520      3.90017609380531
  N   1.10027834426744     -1.63880433996735     -0.88809537923038
  C   1.12711999590844     -0.32612171236703     -0.64411789940205
  N   -0.09200872754951      0.35821871215795     -0.60370308793123
  C   -0.09009573800370      1.67330362432138     -0.30825407677914
  C   -1.26872204270153      2.43246822112035     -0.14879552411189
  C   -0.78705623452661      3.72314306762501      0.29508902552767
  C   0.60145187796932      3.70507366429407      0.36111189117030
  C   1.08827246317428      2.40151297896797     -0.03643669265089
  H   1.21239837305102      4.53818686242614      0.69948669955596
  H   -1.40489400909483      4.57255108089187      0.57542075682036
  C   -2.49002894165603      1.73506791020468     -0.38691084085197
  N   -2.45286939946750      0.40254891515881     -0.66626100117844
  C   -1.31916856656685     -0.29685323825661     -0.76248551331203
  N   -1.31476700219480     -1.61074916877431     -1.00471594093133
  C   -0.11186161250348     -2.20277736701812     -1.06007469903004
  C   -0.08941261936274     -3.64999072325791     -1.33457717694050
  N   -1.13998103714171     -4.40507548497683     -1.53226759924522
  C   -0.76960660395996     -5.70121157391840     -1.76102664073934
  C   0.58212608165319     -5.95349236082670     -1.74075280833054
  S   1.45649525028912     -4.49761441002773     -1.41822858297425
  H   1.09288742170866     -6.90210006441873     -1.89606003540004
  H   -1.53972526089350     -6.45184614192083     -1.94346505978104
  C   -3.81516157774909      2.36820135978213     -0.34853130078176
  C   -3.90247789655783      3.75985829296762     -0.59036583245886
  C   -5.10396684810538      4.45055719854708     -0.56084841794545
  C   -6.28354580894988      3.73909045611360     -0.28996478165278
  C   -6.25081690277358      2.37151403607315     -0.06454707192291
  C   -5.03553670289355      1.64158902816014     -0.09157669259203
  N   -5.01225956967038      0.27890225311399      0.09125235826260
  C   -5.98086670229540     -0.57853788959382      0.63559301825252
  C   -6.88310383659708     -0.19760982566797      1.64758046190558
  C   -7.78677151178413     -1.12688100613093      2.16867135122642
  C   -7.80157946601177     -2.44809405848841      1.71240788394272
  C   -6.88788550433506     -2.83665648194800      0.72624234708370
  C   -5.99016318860148     -1.91546128978809      0.18859485176299
  H   -5.27976455301421     -2.22316921868149     -0.58325932094110
  H   -6.87562900931677     -3.86791556557722      0.36478507933572
  H   -8.50978469683442     -3.16889557023501      2.12662172972024
  H   -8.47806779165855     -0.81202312120152      2.95466361041249
  H   -6.85860812531377      0.81532385899617      2.05020325680882
  H   -4.14619297430553     -0.15314475029771     -0.24737041520677
  H   -7.18328584707204      1.83101913252918      0.09070546526724
  H   -7.24665906713365      4.25591390115605     -0.28285144103381
  H   -5.13130811288205      5.52159026545691     -0.76812466817663
  H   -2.99122196550022      4.29576114420258     -0.85270928257249
  H   7.93863485610968     -3.26163284184087      3.08833482423135
  H   6.56881285043862     -3.96864508809084      1.11790695632411
  H   5.11437277663204     -2.32893202280222     -0.04602339089062
  H   2.91101838139355      4.21522226128889     -0.60526865448163
  H   5.05652524053079      5.39959979876308     -0.30946864617513
  H   7.07960686228760      4.10083667228265      0.41986647898947
  H   6.92436445154069      1.68240096049586      0.81529042948685
  H   3.90786173078276     -0.25033571940061      0.16536980290444
