70
Coordinates from ORCA-job ./opt_b3lyp_cdz
  C   -1.07346317168140     -5.79294361573159      1.89692187565731
  H   -0.54966381877504     -6.00525244762717      2.84160220426006
  H   -2.13349981700024     -6.06422028629463      1.97188525903579
  H   -0.58342282349773     -6.35884452151278      1.08972339213311
  O   -1.05507905018192     -4.38512726705053      1.61206762130722
  C   0.17199012294022     -3.85260288689281      1.48678292982061
  O   1.20420675010253     -4.47026030519467      1.59718263682705
  C   0.11057322678272     -2.36158564587493      1.18631733632401
  N   1.30997279702945     -1.78298876965443      1.04749474544455
  C   1.31093633891245     -0.47097800227857      0.78693247290076
  N   0.07892003993852      0.18695704599920      0.69808480709585
  C   0.06325749759454      1.49665487298651      0.38574976618672
  C   -1.12800425421738      2.22715852475630      0.17860922727364
  C   -0.66199268318813      3.51976442876665     -0.26946327136521
  C   0.72946519308311      3.53152792158326     -0.29294597392767
  C   1.23325947821854      2.24736061307878      0.13903678735537
  C   2.46548896168576      1.54752112688244      0.30924333774627
  N   2.43943601385185      0.21874209951929      0.60898742016149
  C   3.78706685750639      2.17321429133595      0.17824772636553
  C   3.89389584408174      3.56895485393116      0.38960827231195
  C   5.09317946648641      4.25356202526221      0.27398627085291
  C   6.25166211292674      3.53215834342895     -0.05677910276172
  C   6.20081887902793      2.16137801555939     -0.25579353321156
  C   4.98718292188730      1.43672171964283     -0.14068831735331
  N   4.94970255345612      0.07188116114143     -0.29893960405061
  C   5.88535214489048     -0.79696801387510     -0.88362796212622
  C   5.92925431698592     -2.12226339665293     -0.40620478596184
  C   6.79411320482068     -3.05373849693391     -0.97913742449543
  C   7.63995661179847     -2.68597120767156     -2.03148311520414
  C   7.59024693306210     -1.37606887500867     -2.51710588806454
  C   6.71805200242144     -0.43730168686817     -1.96065409162102
  H   6.66291132972316      0.56589399455648     -2.38427948857832
  H   8.22787323006370     -1.07827638480996     -3.35347317446607
  H   8.32275522860173     -3.41455901177997     -2.47377475167775
  H   6.80968969394663     -4.07601183789291     -0.59330846429586
  H   5.27281507186437     -2.41335451611907      0.41803206771331
  H   4.10546241847564     -0.35307153859922      0.09769815146856
  H   7.12008491094193      1.61431880456935     -0.45927934644637
  H   7.21414469075384      4.04465981845947     -0.13215716420566
  H   5.13703036853514      5.32779293225526      0.46074142889025
  H   3.00266069660275      4.11332280418661      0.69889123616513
  H   1.33089017215947      4.37369997397241     -0.62582801775262
  H   -1.28900018462246      4.35129598881549     -0.58121990621086
  C   -2.34045062992187      1.50669738734212      0.39001689424617
  N   -2.28337860979628      0.17812423433442      0.68842110371157
  C   -1.13702772677813     -0.49122891637025      0.82802414343136
  N   -1.10353289316846     -1.80441784261313      1.08830461352585
  C   -3.67590766766963      2.11263608309344      0.30329367748626
  C   -3.79789918017791      3.50466016454002      0.52813045046640
  C   -5.01082446204395      4.17122227712385      0.45138855274486
  C   -6.16655642140962      3.43449817547851      0.14751229258681
  C   -6.09983807984146      2.06564336083249     -0.06241922727427
  C   -4.87248980730719      1.36025331945319      0.01397056464665
  N   -4.81815711011937     -0.00409870361398     -0.15323436275904
  C   -5.75614144321033     -0.88038215301678     -0.72142581819598
  C   -6.61189080470750     -0.52535889955150     -1.78198186062486
  C   -7.48645770963593     -1.46966013286819     -2.32479694422448
  C   -7.51678782706190     -2.78128991626798     -1.84191898566965
  C   -6.64940841073668     -3.14423749054028     -0.80570505099518
  C   -5.78181848899446     -2.20694001183835     -0.24625807667744
  H   -5.10974587009802     -2.49264232947950      0.56718772777181
  H   -6.65159392400931     -4.16737579408611     -0.42153625616086
  H   -8.20174522801082     -3.51425294872216     -2.27343513191853
  H   -8.14176396746610     -1.17504963184515     -3.14849583256640
  H   -6.57304737365458      0.47980714592936     -2.20284368514013
  H   -3.95842051127334     -0.41842111530841      0.22047412034716
  H   -7.01573922574527      1.50552621137154     -0.24499849674475
  H   -7.13849408018254      3.93243414913114      0.10195691073185
  H   -5.06585547234974      5.24337188677222      0.64696601162510
  H   -2.90642691102023      4.06077018234327      0.81525094280391
