74
Coordinates from ORCA-job ./opt_b3lyp_cdz
  N   -4.88249528776299     -0.25097461229949      0.29107038576682
  C   -4.92273939331878     -1.60161198487261      0.02751899246653
  C   -6.13841548098958     -2.32767697401394      0.08823480084363
  C   -6.19547167581229     -3.67775365791584     -0.22345139283231
  C   -5.04120282292327     -4.37136523377704     -0.61900761416264
  C   -3.83877035464601     -3.68332912244935     -0.67921602029287
  C   -3.72698627276018     -2.31179981536358     -0.35038000237332
  C   -2.39954524709574     -1.68240939296850     -0.42055482532331
  N   -2.36290415575255     -0.33674154163227     -0.62706256690965
  H   -5.31593686815383      2.26426688093670     -0.26185871233077
  C   -5.91897147269711      1.90530927659154      0.57607273453203
  C   -6.78235977251968      2.77207835748095      1.24563618151111
  C   -7.56895606313708      2.31215389438239      2.30725748951835
  C   -7.46300379096046      0.97482766124416      2.70159480396103
  C   -6.59052966065592      0.10161748809524      2.04827400546799
  C   -5.81379165959111      0.55506499834595      0.96451366322957
  H   -6.49097518381816     -0.92673308455189      2.39765349225729
  H   -8.05587795136899      0.60416903160837      3.54175142534701
  H   -8.25098977374201      2.98961460312959      2.82542761130064
  H   -6.84663254971571      3.81566333584199      0.92740290036843
  N   -1.20535016102217      1.67734917074114     -0.91090892142894
  C   -1.22250852307802      0.35448093688156     -0.73996277677693
  N   0.00005440597928     -0.32106312337874     -0.67671098475653
  C   0.00047858881898     -1.65058213970136     -0.45397335199555
  C   1.18008027634258     -2.40368133057712     -0.27886226171482
  C   0.69583240615941     -3.72333645596418      0.06924729552882
  C   -0.69379834857972     -3.72395054156310      0.06823741509032
  C   -1.17870959984349     -2.40473953666104     -0.28063510380578
  H   -1.30921265875249     -4.58104988562184      0.32996509572869
  H   1.31162610690055     -4.57988866366889      0.33187471814371
  C   2.40048008635347     -1.68026187890957     -0.41692430080734
  N   2.36295220064211     -0.33462632805925     -0.62349346499869
  C   1.22210657933997      0.35557605501161     -0.73811604852970
  N   1.20401707432583      1.67843084900624     -0.90908651227784
  C   -0.00087265341129      2.27767139780096     -0.99508437730903
  C   -0.00138885550679      3.74809584753995     -1.19644269187804
  C   1.21206204289663      4.45346531541330     -1.29259347043010
  C   1.20900829756184      5.83531412556371     -1.48279175619476
  C   -0.00237287941362      6.52974893822265     -1.57931462631194
  C   -1.21326270595582      5.83420973161600     -1.48459381061180
  C   -1.21533852729476      4.45235867359212     -1.29439899337608
  H   -2.14980716642413      3.89671005367116     -1.21851545197163
  H   -2.16086737506506      6.37296959925511     -1.55947551958896
  H   -0.00275567222984      7.61245115091707     -1.72831002353778
  H   2.15623127289097      6.37493845274857     -1.55626461770404
  H   2.14692304967394      3.89867083077005     -1.21532474650538
  C   3.72835784455432     -2.30853416591810     -0.34487145079299
  C   3.84176050607466     -3.67990037311820     -0.67382924905163
  C   5.04466939670589     -4.36695901269269     -0.61199185820877
  C   6.19777687395485     -3.67248419006161     -0.21457698868801
  C   6.13914465694673     -2.32252835882380      0.09733442455063
  C   4.92296483793337     -1.59744698937350      0.03498402952445
  N   4.88124585455216     -0.24691853459626      0.29886826255528
  C   5.81088512994912      0.55964189152107      0.97397112284093
  C   6.58642979524309      0.10642231839401      2.05868149185146
  C   7.45722405675036      0.98010648252539      2.71360751671779
  C   7.56263034440095      2.31767459145873      2.31994585156818
  C   6.77719033297661      2.77735438422901      1.25736290355177
  C   5.91550141146356      1.91012525355680      0.58620787890930
  H   5.31338033864197      2.26890943988457     -0.25245298728569
  H   6.84104881393068      3.82111777678575      0.93963099190995
  H   8.24334305127332      2.99550353603009      2.83936956454404
  H   8.04918886469788      0.60961500014064      3.55447913606254
  H   6.48723126114389     -0.92214794688720      2.40751609881792
  H   4.03953413337272      0.20761213808327     -0.06956713119814
  H   7.05405511717893     -1.78988058176792      0.35366900318948
  H   7.16181149028433     -4.18611355383795     -0.17520939644706
  H   5.09371442362561     -5.42153902011075     -0.88828700623362
  H   2.95293270510362     -4.20029683127935     -1.02848797546996
  H   -2.94899157176834     -4.20307089911598     -1.03244478835901
  H   -5.08896963523145     -5.42604566162889     -0.89514369006482
  H   -7.15914013530589     -4.19216839283772     -0.18539945754514
  H   -7.05414365479151     -1.79571730593651      0.34307009542238
  H   -4.04060093614282      0.20411355021704     -0.07625586030043
