77
Coordinates from ORCA-job ./opt_b3lyp_cdz
  O   -3.42320518183385     -5.15588145950588     -1.30002680536360
  N   -2.38091483279875     -5.79615794159119     -1.39406831620476
  O   -2.28331992774982     -6.99491996107477     -1.56239111295528
  C   -1.10821090167431     -5.00032218306277     -1.28777010550026
  N   0.01088544568721     -5.69665499149834     -1.38231022535671
  C   1.12723025730300     -4.99603863825491     -1.28688662319494
  N   2.40305874959938     -5.78699167639974     -1.39216753408960
  O   2.31019135160920     -6.98614685337925     -1.56036322808501
  O   3.44281322406864     -5.14270150193859     -1.29747122440005
  C   1.21144717468523     -3.61883274927331     -1.10014706007834
  C   0.00539408210077     -2.90992921607444     -1.00430625839014
  C   0.00248978878674     -1.43261297886953     -0.80004114153744
  N   1.20759725535285     -0.85072983832474     -0.71463982141894
  C   1.22530472849460      0.47705931708489     -0.52884955844025
  N   2.35930734056718      1.16276223147048     -0.40824824317048
  C   2.39973729969294      2.50993879186232     -0.18251687444727
  C   1.17420527421470      3.22305900465351     -0.02828920919817
  C   -0.00517744082113      2.46961952289933     -0.21691487088501
  C   -1.18758273715850      3.21855641754247     -0.02927943375962
  C   -0.70469629636128      4.52923394571173      0.34586846757345
  C   0.68599816521297      4.53188213332969      0.34646657990668
  H   1.29825583629648      5.38496249908049      0.62730533027084
  H   -1.32045266266076      5.37997188288125      0.62616814509548
  C   -2.41025729394218      2.50077934709895     -0.18452340298512
  N   -2.36452960940945      1.15376183426916     -0.41018139407713
  C   -1.22782048326102      0.47238574779428     -0.52984415371222
  N   -1.20489478887726     -0.85533063431989     -0.71560543926499
  N   -0.00256058452314      1.14421911833625     -0.45873781623223
  C   -3.73663724992512      3.11977200030044     -0.11138487513172
  C   -3.84830587604191      4.50490885403299     -0.38974284181345
  C   -5.05122375433560      5.18709084026557     -0.32032991473871
  C   -6.21057678709673      4.47616614947147      0.03352007115754
  C   -6.15636801172013      3.11691096594829      0.29486492141928
  C   -4.93861395728809      2.39261034477111      0.22269181358830
  N   -4.90470856716191      1.03683811435568      0.43984604711637
  C   -5.86404686392808      0.20308132359513      1.04396212385323
  C   -6.65126741939519      0.60267360737242      2.14014264830941
  C   -7.54791956308741     -0.29553327823783      2.72342818506324
  C   -7.66466867411370     -1.60416101673289      2.24471037866128
  C   -6.86710076578019     -2.01126749022579      1.16990751003503
  C   -5.98021048969369     -1.11745626547983      0.56955529222893
  H   -5.36974514159023     -1.43482611666455     -0.27966922614235
  H   -6.93917021010829     -3.03196618747717      0.78671843430044
  H   -8.36472600784224     -2.30195186385565      2.70899741138514
  H   -8.15045492218501      0.03107959764734      3.57476719726096
  H   -6.54204786668572      1.60610331672018      2.55373357569174
  H   -4.05467806192512      0.59169087345174      0.08272779524963
  H   -7.07441801892467      2.57486351151906      0.51751510450276
  H   -7.17548433329361      4.98765560582963      0.07665542865648
  H   -5.09855636868482      6.25068685946118     -0.55930135567065
  H   -2.95666307078566      5.03901776870379     -0.71496372194017
  C   3.72371040942415      3.13391193271180     -0.10818546278990
  C   3.83041766399841      4.51951320442381     -0.38619787992352
  C   5.03070595952003      5.20619220424539     -0.31566237277174
  C   6.19243136867040      4.49955907220782      0.03901148505592
  C   6.14310927095633      3.14006047052363      0.30005086326980
  C   4.92814300292519      2.41120793066205      0.22673250844798
  N   4.89914702502220      1.05527699218409      0.44357508732841
  C   5.86116589964304      0.22495034002785      1.04815697457646
  C   6.64603571682161      0.62715190658761      2.14506696598222
  C   7.54560238928377     -0.26786612538337      2.72876740011932
  C   7.66763207854654     -1.57589602418284      2.24973359842562
  C   6.87243313253055     -1.98565552699967      1.17418376259366
  C   5.98265839405518     -1.09499022792357      0.57342438661223
  H   5.37404753188096     -1.41437919057504     -0.27637354029095
  H   6.94862974755081     -3.00595543763476      0.79073191106991
  H   8.36994340349373     -2.27119993320278      2.71434759825476
  H   8.14624837673704      0.06073871775262      3.58067472694174
  H   6.53273322309973      1.63003436553556      2.55888881810586
  H   4.05104625119906      0.60704124659381      0.08572545812924
  H   7.06299679125275      2.60141016745428      0.52335648387143
  H   7.15537501601212      5.01466014867649      0.08304290774939
  H   5.07424086720592      6.27000338388725     -0.55439844783811
  H   2.93705307346885      5.05033506394020     -0.71206712409927
  C   -1.19785664401183     -3.62345134772291     -1.10108844239884
  H   -2.15920658594971     -3.12154748064454     -1.03149589556192
  H   2.17080667896364     -3.11323889197739     -1.02980872313362
