70
Coordinates from ORCA-job ./opt_b3lyp_cdz
  F   -7.71742546269834     -3.84747201857248      0.66582580724012
  C   -7.51262376480474     -2.89852377638593     -0.27679191854524
  C   -6.20070926278152     -2.18397125069587     -0.06827836274292
  C   -5.04523223008713     -2.94620067126087      0.17790760500256
  C   -3.84406776201050     -2.28217053433196      0.35537834543230
  C   -3.72995247259107     -0.87362765937741      0.29356576241595
  C   -4.92679287397209     -0.10127608649495      0.07268479309656
  N   -4.88885485069197      1.27020106208586      0.07110011169764
  C   -5.85119902399308      2.19392005609782     -0.37687654021337
  C   -5.94075410073010      3.42565731094176      0.29932191755552
  C   -6.83389219060562      4.40624030417644     -0.13192302018070
  C   -7.66192814326882      4.17631271078562     -1.23588101406227
  C   -7.56868237930986      2.95850892274006     -1.91613391114306
  C   -6.66672640031801      1.97528871649413     -1.50270006923010
  H   -6.57720786555706      1.04998225988200     -2.07318987022423
  H   -8.19441658298106      2.77159507172904     -2.79230369162265
  H   -8.36715053689704      4.94144988779695     -1.56713682650315
  H   -6.88779712684636      5.35562905142970      0.40640312639397
  H   -5.30139515631031      3.60344710207032      1.16780858615043
  H   -4.03613005943848      1.64738906510619      0.49774451785113
  C   -6.14706006602390     -0.80090777525286     -0.11318825427057
  H   -7.06639332965264     -0.23660918447081     -0.25045455446736
  C   -2.40017168724012     -0.27091950248925      0.47283210828679
  N   -2.36311751503819      1.01433337060761      0.92006452497646
  C   -1.22579136749577      1.67438568809922      1.15465776570477
  N   -1.21003182447467      2.95001578757222      1.56429081933988
  C   -0.00071800754557      3.49613814538978      1.74350466659051
  N   1.20880423717218      2.95143938258636      1.56137616579867
  C   1.22507428106880      1.67581678467975      1.15173356463871
  N   2.36259112302438      1.01707025129539      0.91448336301393
  C   2.40013959858106     -0.26819826943356      0.46728566930548
  C   1.17988674505845     -0.95310965463022      0.19897709369315
  C   0.00000961959694     -0.24206106603188      0.50749765169215
  C   -1.17979149760647     -0.95443986264335      0.20170565069766
  C   -0.69479419880855     -2.18821408020397     -0.37890462141566
  C   0.69491346853054     -2.18741681778426     -0.38053578278226
  H   1.30856628111000     -2.98348297846028     -0.79462401255314
  H   -1.30854363311935     -2.98496087029743     -0.79153813750190
  N   -0.00020512021424      1.02497187419146      0.96728167273199
  C   3.73019155778379     -0.86934068159496      0.28511627799067
  C   3.84602009088864     -2.27783533616832      0.34620424637876
  C   5.04751105358861     -2.94042932290234      0.16613456502127
  C   6.20175680977142     -2.17679196230996     -0.08189070677751
  C   6.14644074732605     -0.79386655095970     -0.12659259862878
  C   4.92570358116340     -0.09562724949890      0.06195343254742
  N   4.88630123735082      1.27577958114056      0.06069661561583
  C   5.84668634859872      2.20064402131126     -0.38915939423665
  C   5.93635711767774      3.43231550549664      0.28714109007743
  C   6.82749707292418      4.41396666843152     -0.14580093232855
  C   7.65339628620064      4.18518357573236     -1.25159824876229
  C   7.56001299832847      2.96743893733782     -1.93193428759458
  C   6.66001259636812      1.98314594593175     -1.51678653676626
  H   6.57026692560909      1.05787375936208     -2.08729525866627
  H   8.18406169394191      2.78141152219744     -2.80949314616777
  H   8.35706772374000      4.95116386181192     -1.58420234502237
  H   6.88153683205343      5.36329155132663      0.39262306610743
  H   5.29867324904507      3.60919474300026      1.15704222391491
  H   4.03388061068139      1.65194891715044      0.48888419583374
  H   7.06478579365553     -0.22850128923119     -0.26594126528762
  C   7.51412328205503     -2.89052552062476     -0.29023245870945
  F   8.57243773897565     -2.05210273662872     -0.28236587793990
  F   7.53413061661586     -3.54422497234532     -1.47691027615713
  F   7.73025835414238     -3.82266952750203      0.66662296400316
  H   5.10330965748055     -4.02653782647581      0.23747557476086
  H   2.95797686039898     -2.85996197582384      0.58719510597533
  H   -0.00092465838833      4.53798065731630      2.08147062837424
  H   -2.95492184558194     -2.86320980326152      0.59494598521266
  H   -5.09982334173287     -4.03229312958969      0.25000988306577
  F   -7.54151213773585     -3.53177401031976     -1.47437084219064
  F   -8.57332047306049     -2.06358055624354     -0.24544726468012
