75
Coordinates from ORCA-job ./opt_b3lyp_cdz
  O   -3.35699674995381     -5.27690412350063     -0.30891860732816
  N   -2.39445052623727     -5.73835108859158      0.27611611185806
  O   -2.34989522830002     -6.73135652533610      0.97913789498082
  C   -1.09827392678032     -4.98866628731605      0.11488288062611
  N   -0.01411875724649     -5.74505354094319      0.00056098062615
  C   1.07373345866461     -4.99410285483817     -0.11445633179230
  N   2.36618700771320     -5.75035943479049     -0.27511847000144
  O   2.31661734144202     -6.74377479562608     -0.97722210654372
  O   3.33107168009268     -5.29315043072844      0.30938223977341
  N   1.17441213171595     -3.68142138587944     -0.10553748346007
  C   -0.00746549027963     -3.04540125789550     -0.00056782700703
  N   -1.19245982009557     -3.67550142466695      0.10486613084580
  C   -0.00377222407870     -1.54581050568619     -0.00107871055747
  N   -1.20028696363952     -0.96745956321340      0.15770324267749
  C   -1.21251205474624      0.37200933364407      0.17310016394555
  N   0.00256677372080      1.04336619771978     -0.00186482020453
  C   0.00588039525733      2.38819253139765     -0.00229103055340
  C   -1.15678438582991      3.16558328476739      0.20774217285084
  C   -0.67591057891586      4.52309048414181      0.11312849603691
  C   0.69806986213590      4.51966159941585     -0.11914032521623
  C   1.17232357108043      3.15975678284335     -0.21282393008148
  C   2.37825842688940      2.42100089204413     -0.41653521720831
  N   2.33547124970891      1.05797920022712     -0.36209934914735
  C   1.21432055782831      0.36594486125408     -0.17644852234239
  N   1.19557191578157     -0.97344211866176     -0.16020389280365
  C   3.68553518886421      3.02696386662132     -0.68588819824566
  C   3.72448607929108      4.32365837451490     -1.25524165037762
  C   4.90954387614303      4.98522558357433     -1.53008462559634
  C   6.12437122415478      4.34125898325093     -1.24094964846004
  C   6.13959813593725      3.06585004326116     -0.70045437568019
  C   4.94080674134736      2.36363042957923     -0.41293788431907
  N   4.96434333765147      1.08431785468574      0.08532568237618
  C   6.00744592610356      0.36020223143815      0.68767808932491
  C   5.97774714313984     -1.04319470656604      0.56227503220769
  C   6.94622405602007     -1.83090993685692      1.18299187230408
  C   7.96910082197469     -1.23961243486540      1.93283583324849
  C   7.99431738925911      0.15111374612443      2.07136968983459
  C   7.02137532835205      0.95030398914886      1.46582513470414
  H   7.03314327638518      2.02882477398060      1.62536828029040
  H   8.77322824062104      0.62672644362793      2.67278367994090
  H   8.73183500276653     -1.85702783254721      2.41198768794110
  H   6.90077868039181     -2.91712700525934      1.07379637613808
  H   5.18183841887729     -1.51095357339356     -0.02334071450426
  H   4.07339133436222      0.59365729596239     -0.03485502682191
  H   7.09178987068664      2.56440161819708     -0.53494062066410
  H   7.07332783326287      4.83302500242767     -1.46938204839363
  H   4.89662158288506      5.97661239301643     -1.98567818332433
  H   2.78267175239321      4.79478634835930     -1.53132301906845
  H   1.30456326792181      5.41762817605266     -0.20100154940844
  H   -1.27800600016361      5.42406742593648      0.19436742819482
  C   -2.36631919811996      2.43288429368173      0.41193313003976
  N   -2.33027057766737      1.06963197307708      0.35831252372316
  C   -3.67057527430800      3.04552430379673      0.68095603492685
  C   -3.70306490699966      4.34262989830112      1.24977207671400
  C   -4.88482168930280      5.01018955603014      1.52434265326952
  C   -6.10283074108981      4.37215569966389      1.23544260701608
  C   -6.12439896436581      3.09662397183955      0.69544688656529
  C   -4.92910679261710      2.38833872361386      0.40826231569332
  N   -4.95897158094970      1.10902335383797     -0.08968078312062
  C   -6.00631574215840      0.38966408700238     -0.69045435439749
  C   -5.98480874378366     -1.01362321118900     -0.56245966266939
  C   -6.95789732602621     -1.79679139692655     -1.18173294173601
  C   -7.97733071285162     -1.20087767269352     -1.93260724292716
  C   -7.99445324565037      0.18972295976167     -2.07367569187410
  C   -7.01678976793996      0.98427881578157     -1.46964922538164
  H   -7.02221754488300      2.06257675529696     -1.63109563973007
  H   -8.77061066790615      0.66877619896479     -2.67591663497638
  H   -8.74367083093002     -1.81470129087123     -2.41062096434883
  H   -6.91883747490785     -2.88305900151282     -1.07059334609073
  H   -5.19161900408228     -1.48489461408813      0.02401941561465
  H   -4.07059692726197      0.61381520686928      0.03083936314684
  H   -7.07907426602700      2.59989485198853      0.52999553736208
  H   -7.04933608405348      4.86873581283444      1.46363015157047
  H   -4.86697938070350      6.00167958726945      1.97954530751194
  H   -2.75891540474253      4.80917185378019      1.52566312419379
