79
Coordinates from ORCA-job ./opt_b3lyp_cdz
  F   -2.53650692889925     -6.37813560834873     -0.21301663220553
  C   -2.46289964980993     -5.47912719449364     -1.21233229006366
  C   -1.18895337171077     -4.65617013273161     -1.12555901453651
  N   -0.05825929115740     -5.36264278449797     -1.20003782735602
  C   1.08767828949446     -4.68093601305070     -1.12770160386412
  C   1.16711330169436     -3.29560333704631     -0.98072331158086
  C   -0.02756881015869     -2.56750197584597     -0.90329355827618
  C   -0.01135296725472     -1.08572263757625     -0.74295777776001
  N   1.20067876166700     -0.51217630870319     -0.67601184548475
  C   1.23508166241260      0.81907129849436     -0.53333751371372
  N   2.37928330522522      1.49512313637702     -0.43569899903288
  C   2.43528448389323      2.84748573858369     -0.25577597107988
  C   1.22017562920845      3.58233000870413     -0.12713222142689
  C   0.03141423665035      2.83804032775387     -0.28785645947195
  C   -1.14067914753406      3.60787849288097     -0.12507445237140
  C   -0.64073006462120      4.92548548662115      0.20243845059828
  C   0.74949565359141      4.91046127300100      0.20114269443418
  H   1.37339805437567      5.76505635147893      0.45012552616713
  H   -1.24548293912476      5.79338600681884      0.45261482461306
  C   -2.37164259400963      2.89948360521608     -0.25171141828327
  N   -2.34504136788544      1.54623994174876     -0.43193538010720
  C   -1.21590799702591      0.84559219866835     -0.53143103959005
  N   -1.21058323504516     -0.48606092728492     -0.67419115178532
  N   0.01689074958431      1.50505803420685     -0.48424092773111
  C   -3.69033222342678      3.53947649203166     -0.19417423462913
  C   -3.78619807551873      4.91278701775034     -0.52820078997084
  C   -4.98012892565140      5.61326650397382     -0.47726542376369
  C   -6.14501439983831      4.93301814807766     -0.08525344493231
  C   -6.10558215021005      3.58452373675592      0.23105472312228
  C   -4.89788126693633      2.84276469412184      0.17863688516200
  N   -4.87815663056740      1.49549805891363      0.44970789449691
  C   -5.83988165175684      0.70114244707732      1.09938158535587
  C   -5.97984264532761     -0.63675681619096      0.68313159617173
  C   -6.87148032225323     -1.49181867545118      1.33093375475634
  C   -7.65080510971113     -1.02903053598131      2.39653838688513
  C   -7.51067789493693      0.29699496495741      2.81760520123229
  C   -6.60921484521341      1.15714111979792      2.18645162848884
  H   -6.48219443487656      2.17572634021515      2.55547060100053
  H   -8.09848942147324      0.66784460804749      3.66109818784947
  H   -8.35464864420810     -1.69674671442813      2.89784175560116
  H   -6.96273795942767     -2.52673473084295      0.99231598395322
  H   -5.38345017930669     -0.99707103894229     -0.15893584983178
  H   -4.03825130145597      1.02570092787640      0.09953695457645
  H   -7.02847674750959      3.06404050301659      0.48340418462759
  H   -7.10295684700922      5.45835685084277     -0.05473350756749
  H   -5.01557159299294      6.66689633463619     -0.75880523866143
  H   -2.89007937432828      5.42144233360218     -0.88100163574339
  C   3.76751358545117      3.45904682427246     -0.20061235153349
  C   3.89241215487692      4.82960033080589     -0.53623846357549
  C   5.10122946919647      5.50427170367746     -0.48755041324799
  C   6.25167053654600      4.79950619603344     -0.09621387364446
  C   6.18361880276654      3.45248632547278      0.22156008042622
  C   4.96017037083601      2.73685553897079      0.17138910398046
  N   4.91176938859509      1.39055202127467      0.44383834805950
  C   5.85650602308905      0.57672517866410      1.09432324219196
  C   6.63615084404351      1.01790774528088      2.18016710180883
  C   7.51930063145911      0.13963357659946      2.81223567094404
  C   7.63062857290006     -1.18980419317362      2.39333983633593
  C   6.84088394317561     -1.63751371736644      1.32896777494593
  C   5.96743291353535     -0.76456582292760      0.68024001367430
  H   5.36297853784784     -1.11339767905680     -0.16091719243380
  H   6.90969108619360     -2.67471284444395      0.99202959329955
  H   8.32026307513651     -1.87165457362624      2.89536623485851
  H   8.11547577858490      0.49916745438703      3.65475881584733
  H   6.53131285733595      2.03961458860328      2.54752661679753
  H   4.06176231337175      0.93843497671879      0.09484236639388
  H   7.09543344571106      2.91253824565043      0.47332773376532
  H   7.22074118722689      5.30412605915106     -0.06743740911079
  H   5.15899509136722      6.55659895860847     -0.77026196156493
  H   3.00694412517119      5.35701303796806     -0.88841177470173
  C   -1.23794782637396     -3.26944562435651     -0.97844273967104
  H   -2.18272873552628     -2.73348265701697     -0.92095432682687
  H   2.12344493007193     -2.78032731132314     -0.92507999936437
  C   2.34324722853931     -5.53154425252836     -1.21571161195799
  F   2.40226232260057     -6.42594034644359     -0.21113291721277
  F   3.46028995829395     -4.76958611345640     -1.14653319560241
  F   2.39313217252102     -6.21683799684867     -2.37315718392672
  F   -3.56298839767116     -4.69378005615338     -1.13350037721587
  F   -2.53287502748651     -6.15610367341366     -2.37376307556034
