40
Coordinates from ORCA-job ./opt_b3lyp_cdz
  N   -5.15390507531583     -1.21727799378109     -0.44928527523418
  C   -4.98914598222670      0.11675389507147     -0.11331285433758
  C   -5.98121725873718      1.07117194785709      0.04946477083121
  N   -5.35900000582854      2.28963017719011      0.29520185953408
  C   -4.01535303043440      2.15207334986371      0.29226926431758
  C   -3.71523654850570      0.80261163489218      0.04472988359924
  C   -2.39843498725921      0.20582170194858      0.00695114474306
  C   -1.17721142444135      0.94192416256952      0.00453240386479
  C   0.00006123187568      0.16843916745085      0.00028913948047
  C   1.17736261876186      0.94187994869865     -0.00416240845085
  C   0.69654733541781      2.30377434003778      0.00083884263173
  C   -0.69633811120057      2.30379945820096     -0.00080628633954
  H   -1.30666810460050      3.20367586186917     -0.01859432051796
  H   1.30693042836931      3.20361929381790      0.01844585176542
  C   2.39855837336387      0.20574238654614     -0.00636182294271
  C   3.71536929458570      0.80250287245265     -0.04438175037832
  C   4.01550343234450      2.15181670320147     -0.29268588119724
  N   5.35915291802638      2.28937487328655     -0.29557473283240
  C   5.98134515943883      1.07105168540596     -0.04909547519716
  C   4.98925824985227      0.11673298542837      0.11415713906145
  N   5.15396377571569     -1.21710488618743      0.45095113303759
  H   6.02374875342362     -1.63254008629676      0.13189302596106
  H   4.32572756905466     -1.77172401002916      0.23279903607170
  H   7.06217784640800      0.98778250671468      0.00465831732247
  H   5.84710536624078      3.15611296538205     -0.47379189344788
  H   3.36245529277222      2.98875109209307     -0.51120523670103
  N   2.36860420708981     -1.15803179721871      0.01540809645841
  C   1.23018573469928     -1.85231342595251      0.01347664036104
  N   0.00004591711644     -1.18141148519455      0.00051141723456
  C   -1.23011300682959     -1.85227950828597     -0.01218413416040
  N   -2.36850727403096     -1.15796176647067     -0.01435342964164
  N   -1.21100620322191     -3.19534239569626     -0.01489127279132
  C   0.00000527826194     -3.76507258632460      0.00099598809546
  N   1.21103409381240     -3.19537475235856      0.01667866022494
  H   -0.00001197645123     -4.86114128627844      0.00119589331649
  H   -3.36229788416611      2.98916242371958      0.51016426312054
  H   -5.84693397033372      3.15649720156131      0.47284327993332
  H   -7.06205543000976      0.98786723532396     -0.00411779999315
  H   -4.32558476860001     -1.77174979138452     -0.23108109995223
  H   -6.02360229553770     -1.63256244122473     -0.12979764455096
