40
Coordinates from ORCA-job ./opt_b3lyp_cdz
  N   5.12483115527066      1.25616298022753     -0.17416754785688
  C   4.92254024653992     -0.09432571439788     -0.05926545756218
  N   5.94943536653866     -0.98991872679359     -0.00944508224868
  C   5.45095597285434     -2.29722393366827      0.01618728124876
  C   4.08847422041600     -2.22646745517449     -0.01022127077038
  C   3.70931133395957     -0.82977582048496     -0.05121796436230
  C   2.39945483475726     -0.23848594957600     -0.03628242247310
  N   2.36487970356710      1.13363871569142     -0.03783896473862
  C   1.22885215780838      1.82636854977426     -0.01580672492573
  N   1.21138182858298      3.17188841379922     -0.01129470207535
  C   -0.00002561827421      3.74013985723365      0.00235879315021
  N   -1.21142228040265      3.17186087006829      0.01558712161865
  C   -1.22887213989167      1.82633898527087      0.01918422126281
  N   -2.36488819146562      1.13358341804122      0.04064127328639
  C   -2.39948188671028     -0.23855480897713      0.03815003388118
  C   -3.70930024511875     -0.82988734894237      0.05244906744116
  C   -4.08846737429882     -2.22653480610573      0.01010650974419
  C   -5.45092590577566     -2.29726571570124     -0.01661354146452
  N   -5.94944246167361     -0.98996585399053      0.00980513905517
  C   -4.92256511096735     -0.09443752513667      0.06090696723274
  N   -5.12476275454713      1.25595797919077      0.17725161214317
  H   -5.90847930762261      1.64086533189495     -0.34344658567938
  H   -4.23640585359274      1.75918290367485      0.06610209844962
  H   -6.92649968465328     -0.73992826422845      0.08135724800981
  H   -6.12527740146020     -3.14687369900172     -0.06131041322813
  H   -3.41752230769340     -3.07795400162248     -0.01427236009372
  C   -1.17638146436753     -0.97079949456676      0.01559271974412
  C   -0.00000959562733     -0.19678465047141      0.00113512877888
  C   1.17638694098963     -0.97076649883874     -0.01397198319349
  C   0.69581623423029     -2.33380394843928     -0.00844469819936
  C   -0.69579597590106     -2.33381699679584      0.00891225597047
  H   -1.30718920162814     -3.23260571999863      0.01860877769881
  H   1.30723735302393     -3.23256730993167     -0.01875765179760
  N   -0.00000284870705      1.15615585548852      0.00155487129981
  H   -0.00003361844445      4.83659333422452      0.00276717176719
  H   3.41755671426985     -3.07793568392491      0.01319289510969
  H   6.12524098570278     -3.14694643562938      0.05964479409593
  H   6.92654173420472     -0.73957372043062     -0.07913975375731
  H   5.90837372476911      1.64045978088816      0.34723753371500
  H   4.23649836943836      1.75936179416054     -0.06289657717698
