23
Coordinates from ORCA-job ./opt_b3lyp_cdz
  N   4.85410972762247     -0.00033389283816      0.00106643666463
  C   3.69029017992393     -0.00062059483808     -0.00002740109570
  C   2.25111305334599     -0.00044747548813     -0.00012623213188
  C   1.55780477103104      1.20793172718685     -0.00013774559767
  C   0.14334604400438      1.22579410550099     -0.00009409953641
  C   -0.57999203365340      2.43652821094501     -0.00007456566606
  C   -1.96927742858629      2.43547223443577     -0.00004181597578
  C   -2.66284299626013      1.23685629262873     -0.00002654449374
  C   -1.97495632994287      0.00027989644049     -0.00004285567967
  C   -2.66326699468973     -1.23606871804121     -0.00002639814102
  C   -1.97011672466196     -2.43491859794661     -0.00004194053063
  C   -0.58082588056021     -2.43645108158721     -0.00007495017310
  C   0.14291882046592     -1.22596516954177     -0.00009424530371
  C   1.55738667851169     -1.20857549392833     -0.00013778017127
  H   2.08062210312772     -2.16225701013394     -0.00014659029738
  N   -0.56321584731078      0.00003684102455     -0.00007644644643
  H   -0.00859934433280     -3.36315916909267     -0.00008605271264
  H   -2.51569593150367     -3.38158454634856     -0.00002704650427
  H   -3.75200172639866     -1.20205558356096      0.00000057340881
  H   -3.75158922299257      1.20321798518802      0.00000018876829
  H   -2.51453193182705      3.38232525073770     -0.00002692370662
  H   -0.00744750279932      3.36303988315806     -0.00008539662726
  H   2.08137477924239      2.16142860594820     -0.00014659455631
