87
Coordinates from ORCA-job ./opt_b3lyp_cdz
  N   -5.07819234412757     -0.95482760669090     -0.40865272216200
  C   -4.99642866924792      0.40888768089344     -0.24678922395993
  C   -5.99217656812056      1.37148436283476     -0.17708442942073
  N   -5.38582172844955      2.61210841940655      0.04691374341146
  C   -6.08222819859308      3.84407163142924      0.17559495978805
  C   -5.62889365330974      4.81858911159908      1.07745146856977
  C   -6.31002246357999      6.03240395804380      1.18796476090896
  C   -7.45342434978042      6.27670449660777      0.42071533586613
  C   -7.90946434314109      5.29712340046645     -0.46685645700117
  C   -7.22729664789335      4.08577146735319     -0.59775356712693
  H   -7.56486021935841      3.33527722683398     -1.31412441514026
  H   -8.79878999709909      5.47901059067335     -1.07458046025749
  H   -7.98823463276351      7.22395567410362      0.51689145235364
  H   -5.95191854044854      6.78520716849835      1.89394304498550
  H   -4.76212044966267      4.61399409883728      1.70845959416668
  C   -4.03751100251402      2.45967492578925      0.10282387533765
  C   -3.72335671207720      1.10935450006023     -0.07424618583138
  C   -2.39911001507703      0.52932290725835     -0.06641163693131
  C   -1.18012827203210      1.27167483619679     -0.03510838731913
  C   0.00013993135073      0.50041215727577     -0.00454796432026
  C   1.17684568526595      1.27705129363259      0.02716906009280
  C   0.69223369529297      2.63534129888855      0.01798020808479
  C   -0.70177535806759      2.63216255315281     -0.02387807253946
  H   -1.31016498580744      3.53281350039998     -0.05383266128807
  H   1.29644410908232      3.53875327299964      0.04932086925236
  C   2.39922714575811      0.54025437622867      0.05718775806850
  C   3.72080761446389      1.12630180949274      0.06579186941957
  C   4.02875131534032      2.47835816492611     -0.10896620256825
  N   5.37636378199451      2.63684014709884     -0.05314167014411
  C   6.06712344135458      3.87218303481316     -0.17986670230099
  C   7.21134621416877      4.11771931201674      0.59352645021685
  C   7.88794833451797      5.33239717014536      0.46455418982188
  C   7.42715049376856      6.31146105470800     -0.42112925519316
  C   6.28461169575161      6.06331835175407     -1.18843030556523
  C   5.60905005723451      4.84622309898975     -1.07984298374416
  H   4.74299567722970      4.63879650013173     -1.71091221179664
  H   5.92284877545994      6.81573518784061     -1.89295368304288
  H   7.95760970958639      7.26130662597148     -0.51580474900780
  H   8.77664261118374      5.51725929536856      1.07230713362401
  H   7.55256808454230      3.36750126348495      1.30845243843387
  C   5.98843069074341      1.39859929493413      0.16851846648654
  C   4.99710107802643      0.43135196203689      0.23678037386351
  N   5.08511896293718     -0.93224774371790      0.39621612060579
  C   6.16582755235023     -1.74762987820675      0.71586741773443
  C   5.96840741089215     -3.14445238854767      0.61400684935550
  C   6.99380876211256     -4.03174142292153      0.92519471476706
  C   8.24520667493328     -3.56151844878649      1.34600160082004
  C   8.44071814031800     -2.18437857468665      1.46234205758598
  C   7.41994909250804     -1.27897191315553      1.15459265678653
  H   7.59390136419933     -0.21494894370582      1.29809977076157
  H   9.40397120820221     -1.79676639998255      1.80465121721620
  H   9.05031639716374     -4.25978521109371      1.58389098231647
  H   6.81366441778349     -5.10617045792269      0.83597101120202
  H   4.99377263411455     -3.52069175423262      0.28951545867242
  H   4.17752530531864     -1.38758928233002      0.27125902802470
  H   7.06603768153831      1.31668873505618      0.14080299348000
  H   3.37539158921410      3.33108043018537     -0.24403097192661
  N   2.36405384691720     -0.82376036369168      0.07183191319183
  C   1.22795413228600     -1.52148060450636      0.03965535847363
  N   0.00323079492866     -0.84786375692025     -0.00565092432060
  C   -1.21838633229751     -1.52702825801280     -0.05206884491334
  N   -2.35768957469941     -0.83448846871645     -0.08316043116136
  N   -1.19780497692825     -2.86481380354298     -0.05669522154563
  C   0.00920762260167     -3.44675608349855     -0.00778097087686
  C   0.01268088955278     -4.95382932310845     -0.00902289650732
  N   1.19627629766217     -5.57078689164500      0.13258424659084
  C   1.12802509357142     -6.90386998464043      0.12450148668555
  N   0.01889400759896     -7.64210634531891     -0.01126022371863
  C   -1.09363940043500     -6.90877869848005     -0.14579127282914
  N   -1.16805183440528     -5.57601328282139     -0.15165575221897
  H   -2.03624482688067     -7.45578594306137     -0.26256873933956
  H   2.07314933564810     -7.44670720151328      0.24037780507567
  N   1.21353065651778     -2.85934921007235      0.04209521412386
  H   -3.38808841670183      3.31512047138985      0.23964286932430
  H   -7.06940672749281      1.28461665724749     -0.14977833027548
  C   -6.15497929583194     -1.77450013635505     -0.73068622517799
  C   -5.95110531745736     -3.17061457859565     -0.63183957047403
  C   -6.97221715173453     -4.06198099626765     -0.94547187623519
  C   -8.22560905035229     -3.59668201391386     -1.36581978190205
  C   -8.42751420138504     -2.22021839672375     -1.47919573410356
  C   -7.41110616126020     -1.31073193019210     -1.16894662500757
  H   -7.58997762597217     -0.24721510497815     -1.31013358133687
  H   -9.39246804252474     -1.83638502576700     -1.82109681046509
  H   -9.02733184292352     -4.29818032911453     -1.60563110741765
  H   -6.78709780782256     -5.13575324814347     -0.85855272941116
  H   -4.97487269632172     -3.54302946243084     -0.30774540183355
  H   -4.16855780196193     -1.40623345026025     -0.28425181598882
