84
Coordinates from ORCA-job ./opt_b3lyp_cdz
  N   -5.00026963223338     -0.99528055918400      0.41714798301113
  C   -6.04139302707352     -1.86327732155790      0.72746213821894
  C   -5.76673831759177     -3.24879228991115      0.64891941881812
  C   -6.74879507149562     -4.18658631250386      0.95173724642211
  C   -8.03253731392032     -3.78011972370848      1.34051415932872
  C   -8.30441667326496     -2.41419274969945      1.43410749671661
  C   -7.32784239919808     -1.45846676983341      1.13531636582915
  H   -7.56309575741413     -0.40421289295239      1.26269451705728
  H   -9.29401688817715     -2.07494459101795      1.75193597156888
  H   -8.80350846025549     -4.51805316568382      1.57183733502204
  H   -6.50858098190926     -5.25065670986586      0.88099624223370
  H   -4.76655935275697     -3.57532783399635      0.34915167011949
  C   -4.98393223341600      0.36697009042658      0.22003573412654
  C   -6.02334782578445      1.27956713455148      0.11415084607808
  N   -5.46975675420179      2.54461439579018     -0.10040060648786
  C   -4.11256003475012      2.45906894483665     -0.12979756206035
  C   -3.74200458494688      1.12525531639014      0.06955819111654
  C   -2.39290001148682      0.60475546059931      0.08134269439558
  N   -2.28901323241142     -0.75454163276795      0.10053569958514
  C   -1.11662575744756     -1.39406508392254      0.08774847681418
  N   -1.03472321081172     -2.72803242375164      0.09560667898324
  C   0.19837690927314     -3.25814985981925      0.06563814060259
  N   1.37365273541106     -2.61000814794233      0.03257280874456
  C   1.32445715397098     -1.27439839866925      0.03321158715051
  N   0.07072254077844     -0.65751361894274      0.05837105788253
  C   0.00471836693270      0.69021482144842      0.05516150679249
  C   1.14378664906046      1.52019193148445      0.04039917664639
  C   0.59639201387316      2.85502523558678      0.04113114574991
  C   -0.79638881681879      2.78656602763172      0.06228629899994
  C   -1.21017031162386      1.40457132937005      0.06723832620095
  H   -1.44840454061758      3.65655164895306      0.08371472654156
  H   1.15951759850954      3.78496454609045      0.01778585416776
  C   2.39913894164512      0.83982747255010      0.03008284923032
  C   3.69107602350711      1.48927696849998      0.04035760532176
  C   5.00146180110898      0.85450537508927     -0.10196133044832
  N   5.15086391612335     -0.50096358522456     -0.28969474332751
  C   6.27319196357528     -1.26666451445002     -0.58579831410874
  C   6.13236727234437     -2.67161756382271     -0.49856875081333
  C   7.20238353824419     -3.51275323983897     -0.78680381980738
  C   8.44424737880722     -2.98748492977055     -1.16917610295594
  C   8.58435734809084     -1.60244100865036     -1.27134754416513
  C   7.51805968407727     -0.74294939154868     -0.98731696829922
  H   7.65224392882092      0.32805642592824     -1.12108005025603
  H   9.53933867510877     -1.17184182532890     -1.58440481455633
  H   9.28442624060102     -3.64946258232324     -1.38903284158082
  H   7.06493420091964     -4.59446011139216     -0.70954560604391
  H   5.16577620217721     -3.09067021982314     -0.20366352195493
  H   4.26176134259854     -0.99665925011335     -0.18304698009968
  C   5.94670158176634      1.86473132352582      0.00001788470933
  N   5.27189300251782      3.07126445731619      0.20442465231732
  C   3.92945278012748      2.85412161864453      0.23134092465488
  H   3.24398243857287      3.66147221319024      0.46153563377576
  C   5.90310831798033      4.31344509714792      0.38020037668963
  N   5.43932240000093      5.43761334454276     -0.26551845711305
  C   6.23384904940966      6.51358230138927      0.06806123773316
  C   7.20600944598859      6.06639960537079      0.94116811326463
  C   6.99874783245286      4.66903821534168      1.14518870695957
  H   7.55689286021895      4.00415259197817      1.79894824472445
  H   7.97791407111143      6.67919356186598      1.40041996247015
  H   6.03840758626144      7.50092258931506     -0.34039586445883
  H   4.71768280328732      5.43251981553798     -0.97445741378619
  H   7.02673359884494      1.86119177984980     -0.04267787781182
  N   2.42852328995967     -0.52320114802652      0.01724552877712
  C   0.27221600739831     -4.76267477811255      0.06977067107416
  N   -0.87195691952844     -5.42428632449780      0.30714323895857
  C   -0.79229269223659     -6.75784332501770      0.31079569093020
  C   0.40354929291057     -7.43914887841151      0.07701526135801
  C   1.52702072788766     -6.64532711425843     -0.16071572571377
  N   1.47572145248526     -5.31037709686960     -0.16431452065788
  H   2.50737554798662     -7.09444716925430     -0.35623282563233
  H   0.45703642042670     -8.52931590769872      0.07999941580359
  H   -1.72400470566601     -7.29972489923176      0.50905699090352
  H   -3.50944593186014      3.32764840163544     -0.36764963462526
  C   -6.21917052637562      3.71840408454658     -0.28195132125662
  N   -5.86557237698108      4.88613752531696      0.35615741941893
  C   -6.76159442661555      5.87777396403339      0.01855989919955
  C   -7.68734414528809      5.33310144656160     -0.84963949755173
  C   -7.34564355158382      3.96129967174584     -1.04623168708802
  H   -7.83780320813142      3.24159425564686     -1.69493189606495
  H   -8.51599371645206      5.86526279603438     -1.31052162808536
  H   -6.66224274183410      6.88184362426891      0.42086479272345
  H   -5.14589723455665      4.95516451630218      1.06376217387450
  H   -7.09780538050578      1.17085276303782      0.15985841266153
  H   -4.06778018837790     -1.40312743896194      0.30927868066731
