82
Coordinates from ORCA-job ./opt_b3lyp_cdz
  N   5.09745229311129      1.06519306513431      0.01039956235330
  C   4.99512654314327     -0.30251425113118      0.04258857411616
  C   5.99753776905407     -1.25847008149182      0.07273065192460
  N   5.39215947560676     -2.51925239004100      0.13396375071932
  C   4.04044423300649     -2.37859492647607      0.12659694381945
  C   3.72230490113634     -1.01844831382296      0.06921985617744
  C   2.39884092187098     -0.43747321314904      0.04075961783708
  N   2.36211220284431      0.92659857888780      0.03647992678121
  C   1.22224459614525      1.62183046499122      0.01676077879770
  N   1.20537453200199      2.95871441571295      0.01558682599455
  C   -0.00089417796797      3.54738815424827     -0.00007898442433
  N   -1.20688980263235      2.95815269318782     -0.01579931259784
  C   -1.22313425913921      1.62125967689331     -0.01707727332989
  N   -2.36267536262692      0.92549437364134     -0.03690920265803
  C   -2.39877554868351     -0.43859725090845     -0.04140238737997
  C   -3.72196053372086     -1.02020856200454     -0.06999625411646
  C   -4.99515558420426     -0.30491583565775     -0.04344002913441
  N   -5.09818823442267      1.06272780152533     -0.01096502068259
  C   -6.24152138129248      1.83353776951448      0.10112503476422
  C   -7.56209198014159      1.48216197507928      0.26412726326583
  O   -8.34426024552265      2.61220636416188      0.33234616890499
  C   -7.51388080729686      3.67822669452284      0.21249174151590
  C   -6.22030002703059      3.27775970953059      0.06773903643609
  H   -5.34109679303926      3.90820496203418     -0.04739320874959
  H   -7.98603353362680      4.65584403493843      0.24672060811919
  H   -8.09295723920570      0.54614366919328      0.37256481277811
  H   -4.18993486819985      1.53131246963687     -0.02532365466056
  C   -5.99707705118468     -1.26137172955586     -0.07400981894246
  N   -5.39105554772143     -2.52185088578262     -0.13507266275977
  C   -4.03941412699535     -2.38051920203339     -0.12735455981408
  H   -3.39318200642814     -3.24906393422626     -0.11218224389900
  C   -6.08924906514534     -3.75786643294110     -0.16704177763811
  C   -7.28609132530940     -3.90601518446621      0.54997509662692
  C   -7.97035606891831     -5.12269565451147      0.51416705668436
  C   -7.46648503534695     -6.19995131925368     -0.22130916028421
  C   -6.27186959045167     -6.04888218823923     -0.93254231720753
  C   -5.58721333191915     -4.83220540131550     -0.91741246768362
  H   -4.67807892079189     -4.70450638975252     -1.50771102196952
  H   -5.87495867635672     -6.87936288396179     -1.52094302515739
  H   -8.00344414896856     -7.15062397814642     -0.24325525340831
  H   -8.90000351644421     -5.23051275018371      1.07768331841852
  H   -7.66268889787584     -3.07701908952408      1.15109889214304
  H   -7.06976284387654     -1.16857769068060     -0.17143465284393
  C   -1.17825567528059     -1.17855150399917     -0.02070855073323
  C   0.00002648605951     -0.40492947877625     -0.00033383088044
  C   1.17867523992195     -1.17800073559848      0.01974374430885
  C   0.69746593336502     -2.53815181572417      0.01073616626781
  C   -0.69639650430947     -2.53847727903411     -0.01241215473205
  H   -1.30223540100471     -3.44127379823360     -0.02065619437254
  H   1.30374119861455     -3.44066106139946      0.01837812109483
  N   -0.00028725928020      0.94418272726607     -0.00017011885456
  C   -0.00124153777471      5.05381860777262     -0.00002829221828
  N   -1.17690543678141      5.65924691205935      0.23434022973236
  C   -1.16264932390726      6.99515315610092      0.23490825278575
  C   -0.00185524804550      7.73410184699666      0.00007073848854
  C   1.15927668461377      6.99570232156807     -0.23482295299860
  N   1.17414480531400      5.65980262216717     -0.23435397237783
  H   2.11630994141681      7.49223905593903     -0.43155960904214
  H   -0.00210501865553      8.82557797138244      0.00011149316713
  H   -2.11991015000145      7.49123680328054      0.43168136533896
  H   3.39463464757590     -3.24745730196831      0.11173455108400
  C   6.09098140782479     -3.75491698377115      0.16581254916459
  C   5.58967946656560     -4.82947581692497      0.91635918480146
  C   6.27495222583139     -6.04580714149007      0.93136647357409
  C   7.46946087215201     -6.19630636210729      0.21983355801414
  C   7.97260111662060     -5.11882923181156     -0.51581824615595
  C   7.28771452223608     -3.90249522851661     -0.55150379579255
  H   7.66374163488439     -3.07333522889383     -1.15275860044849
  H   8.90215859398604     -5.22620270186789     -1.07956755576370
  H   8.00690396813460     -7.14670777650447      0.24168292415423
  H   5.87861042452013     -6.87646122111931      1.51990595831491
  H   4.68063445788760     -4.70221124289884      1.50688903307256
  H   7.07019589242320     -1.16512687929841      0.16994119859139
  C   6.24036524449372      1.83659892400473     -0.10190026529001
  C   7.56098755952739      1.48590867174783     -0.26596302725468
  O   8.34261505022847      2.61633862769257     -0.33395816571027
  C   7.51184392991681      3.68191761835958     -0.21290017636683
  C   6.21853189257921      3.28078910405098     -0.06756428626202
  H   5.33913172012813      3.91077834888477      0.04856105614654
  H   7.98354732133171      4.65976365361211     -0.24679147081540
  H   8.09217003736052      0.55018679085784     -0.37540116595783
  H   4.18898478489751      1.53333148011213      0.02554055478423
