82
Coordinates from ORCA-job ./opt_b3lyp_cdz
  N   5.08659063126222      0.68534498044588      0.03628289493431
  C   4.93703726219819     -0.67679519335868     -0.04516403016131
  C   5.89484167620573     -1.67609144955940     -0.11351668198886
  N   5.23345300783806     -2.90480795802874     -0.22256651090830
  C   3.88938785289452     -2.70456354294114     -0.20829638141398
  C   3.63265188504301     -1.33521205526009     -0.09812374854688
  C   2.33514212907814     -0.69884739894532     -0.05007457221844
  N   2.35806950115537      0.66491418640778     -0.01637424716134
  C   1.25141613111486      1.41062817785014      0.01953547752441
  N   1.29550677179178      2.74641186849693      0.04478738084216
  C   0.11743011430198      3.38956407424072      0.07196614483527
  N   -1.11362403223528      2.85405596094089      0.07847080694357
  C   -1.18960821907649      1.51959185516326      0.05701422615201
  N   -2.35879153938019      0.87519478404377      0.06733353557347
  C   -2.45748718078286     -0.48547409853694      0.05018244311571
  C   -3.80625913602655     -1.00584633245057      0.08067246605593
  C   -5.04737427685628     -0.23427280521393      0.04174783486577
  C   -6.08959997509431     -1.14674447533282      0.08377233290995
  N   -5.53919877607210     -2.43107478660964      0.16544034361675
  C   -4.18267655468871     -2.34948470042212      0.15823606774704
  H   -3.57463411396953     -3.24530016547416      0.16767761838215
  C   -6.29154549677260     -3.63452440183949      0.21937808872474
  C   -5.84016535606135     -4.71413066605950      0.99385949916113
  C   -6.57787266579028     -5.89897469029453      1.03053008785319
  C   -7.77517019791772     -6.01190192527531      0.31676115310182
  C   -8.22822270923838     -4.92891800483634     -0.44298723405423
  C   -7.49083422233025     -3.74451229725640     -0.50028395846211
  H   -7.82831458363646     -2.91236341364788     -1.11999192546099
  H   -9.15945498328507     -5.00729922031981     -1.00873033013655
  H   -8.35359365225947     -6.93738255702924      0.35548417096692
  H   -6.22025051075509     -6.73376142292475      1.63771095933608
  H   -4.92866473179991     -4.61462976588431      1.58595172568102
  H   -7.15725140069111     -1.00820683505487      0.18037426773366
  N   -5.07687201144020      1.13736460979710     -0.00633380140733
  C   -6.15667671435579      1.99347196449949     -0.15881208848305
  C   -7.48368177537607      1.68267618379143     -0.38375417308045
  S   -8.46622201628788      3.12007255418758     -0.52280342101599
  C   -7.08358444406951      4.14266195324445     -0.27608486870701
  C   -5.93982978711852      3.41926187129100     -0.09707110158233
  H   -4.95622741570019      3.86218659717120      0.07272942050778
  H   -7.19646128080281      5.22495010086123     -0.27167038404850
  H   -7.94659021247207      0.71317290816503     -0.52467795770355
  H   -4.14009225268524      1.54698109299850      0.03218757622887
  C   -1.27188213120464     -1.27949956316842      0.00867317388035
  C   -0.05971081576588     -0.55963893159437      0.00084655348086
  C   1.08300013019601     -1.38452247079177     -0.03995344214350
  C   0.54050006151155     -2.72140346481626     -0.05961488669726
  C   -0.85194609359388     -2.65924481015358     -0.03268097695098
  H   -1.49842760602650     -3.53338813532111     -0.04864170990124
  H   1.10507946199863     -3.65016388022736     -0.08837700518178
  N   0.00057382461743      0.78801708959125      0.02697155111539
  C   0.18533497856271      4.89444406889474      0.09787421155231
  N   1.40471281191693      5.44403305069557      0.22009047932266
  C   1.45104637008270      6.77889387353043      0.24315602709865
  C   0.30659822607129      7.57197046503951      0.14309650395515
  C   -0.90467798720197      6.88933873295839      0.01833219543494
  N   -0.97923343843248      5.55571740389923     -0.00367938235162
  H   -1.85375284372145      7.43060245050903     -0.06758728844295
  H   0.35594598581422      8.66217234307786      0.16141849094225
  H   2.44499946370263      7.22897387736696      0.34601290132548
  H   3.20529767845332     -3.54349662913742     -0.23100238393000
  C   5.87676570738755     -4.16829777914703     -0.30543687960487
  C   7.06364252507003     -4.39891847797040      0.40621113093592
  C   7.69365044988272     -5.64214539458433      0.32051208253055
  C   7.14486205366217     -6.66446561245116     -0.45987177216183
  C   5.96020099060753     -6.43123081529032     -1.16553995695145
  C   5.32988007895601     -5.18710010491921     -1.10046095404923
  H   4.42893896698805     -4.99495308520596     -1.68583684255617
  H   5.52871366870224     -7.21808469175522     -1.78852753273996
  H   7.63933311536942     -7.63624838818091     -0.52084598210698
  H   8.61585803758752     -5.81430103687465      0.88023523890741
  H   7.47475075887592     -3.61325483036490      1.04191683033062
  H   6.97034821973000     -1.63001239455653     -0.21078545927564
  C   6.23709696508454      1.44096461253956      0.20192975412782
  C   7.53528410172968      1.01209202812057      0.39917236423230
  S   8.63765946956927      2.35617923055058      0.57006553061396
  C   7.34429123186464      3.49932828275398      0.37348763816149
  C   6.14138734885716      2.88129240889584      0.18781855518687
  H   5.19703919349268      3.41094084854505      0.04570003429439
  H   7.54850558516365      4.56778954422852      0.40161863420208
  H   7.91679020705510      0.00310537763344      0.50103225676991
  H   4.18819491736709      1.17498421315764      0.02093233622119
