94
Coordinates from ORCA-job ./opt_b3lyp_cdz
  C   -9.29015735654832     -4.46996739169876      1.83476153088208
  C   -8.19728204183801     -3.48233846200895      1.50141969938165
  C   -8.39088393867717     -2.10129300619117      1.60659452477374
  C   -7.38592179978141     -1.18079649765942      1.28662750119507
  C   -6.12959861461308     -1.62816991707300      0.84023577804624
  N   -5.06047447722886     -0.80237776269925      0.50720283492081
  C   -4.98838436498812      0.56146527782221      0.34717809887473
  C   -5.98952620297977      1.52017246026876      0.30039847085050
  N   -5.39255606852288      2.76424140659036      0.06823327977484
  C   -6.09510857583687      3.99365409798751     -0.04124056550183
  C   -5.65545119218400      4.97965319637841     -0.93774253533709
  C   -6.34291798688298      6.19138313049506     -1.02936272862362
  C   -7.47980347708769      6.42327002453221     -0.24867970868528
  C   -7.92247003869924      5.43269353943105      0.63337877148590
  C   -7.23378129610893      4.22318159456222      0.74554743665863
  H   -7.56095980654413      3.46445517001112      1.45798418070391
  H   -8.80653834103648      5.60439269940311      1.25172778870253
  H   -8.01963344313911      7.36906515251840     -0.33010287990769
  H   -5.99482425422587      6.95269915092151     -1.73126421282410
  H   -4.79415751040891      4.78567259323528     -1.57945085687226
  C   -4.04436577485682      2.61662018385407     -0.01443181560388
  C   -3.72177087228314      1.26764892266315      0.15212281260800
  C   -2.39501828889384      0.69166931920627      0.11750026798850
  N   -2.34981019690488     -0.67111928232166      0.13358392103319
  C   -1.20789734900009     -1.36134353452473      0.08046459073022
  N   0.00882283307756     -0.67706786370929      0.00994346448382
  C   0.00158120045329      0.67182393565345      0.00813885176840
  C   1.17479739482377      1.45150005763591     -0.04724232913447
  C   0.68636751654835      2.80907116292559     -0.02887038093275
  C   -0.70617000497451      2.80165380560914      0.04001981501439
  C   -1.17995314283093      1.43896305000922      0.06169012793537
  H   -1.31684581301780      3.70037570129095      0.08133730696742
  H   1.28729425358646      3.71423144299296     -0.07237232271776
  C   2.39783217836179      0.71715464821452     -0.10091236780874
  C   3.71836977283413      1.30712173362357     -0.13670412787378
  C   4.02658426388733      2.65986332982833      0.02650421064479
  N   5.37314512943774      2.82158662390476     -0.05624018559723
  C   5.98334342296206      1.58333390136061     -0.28508555893864
  C   4.99245401629599      0.61393126841990     -0.32966843224893
  N   5.07904152574874     -0.74949135595071     -0.48612635857240
  C   6.15690837274817     -1.56485623719970     -0.81667875700322
  C   5.96199240654499     -2.96250594443041     -0.71806321636575
  C   6.98239134105931     -3.84859650094769     -1.03939749099776
  C   8.24414808269612     -3.39902977151140     -1.47216905499676
  C   8.42336060853793     -2.01634204690981     -1.58083888074748
  C   7.40865101485462     -1.10555194559898     -1.26375395874600
  H   7.59140767364797     -0.04310713421051     -1.40822900933329
  H   9.38469783446713     -1.62677370313418     -1.92916472575139
  C   9.34630050530200     -4.37628933632569     -1.80556170456945
  H   9.63136103072083     -4.98277467745086     -0.92781097583260
  H   9.03750649527335     -5.08261497062814     -2.59588027327460
  H   10.25092669926826     -3.85706008623125     -2.15791698285755
  H   6.79511751377069     -4.92308780260588     -0.95025918502442
  H   4.99008552695676     -3.34160952723351     -0.38836805015223
  H   4.17266051509496     -1.20433981507633     -0.34856372851285
  H   7.06134003223366      1.50319766861543     -0.27709927133247
  C   6.06263907777860      4.05861105956569      0.05048748564755
  C   7.19917797878072      4.29817682169646     -0.73639353020047
  C   7.87504969743720      5.51514290143498     -0.62692855716026
  C   7.42159104293932      6.50316781853135      0.25250990040834
  C   6.28686493660528      6.26124797936922      1.03328616536296
  C   5.61222283152153      5.04212799259957      0.94437088912489
  H   4.75272702187965      4.84066662289561      1.58618165211443
  H   5.93047629028032      7.02058470346318      1.73316635438998
  H   7.95139824721414      7.45479100523726      0.33183372093542
  H   8.75753285058398      5.69461609207374     -1.24533377431625
  H   7.53464294210804      3.54118511148359     -1.44681903154555
  H   3.37346629757585      3.51153136663125      0.16904501075970
  N   2.36724776406240     -0.64608608422691     -0.11354655623201
  C   1.23283546021532     -1.34841227507484     -0.05874170425696
  N   1.22342795189013     -2.68490335037215     -0.05981110055638
  C   0.02282390277390     -3.28104516513720      0.01329758033004
  N   -1.18411387567876     -2.69764659281408      0.08494229809481
  C   0.03090007154261     -4.78766856927616      0.01514374773206
  N   1.20842050185848     -5.38734175204324     -0.22435152407437
  C   1.20131724755654     -6.72323045129484     -0.22226623566616
  C   0.04525499927627     -7.46776350828234      0.01831877695699
  C   -1.11871615520389     -6.73508721508025      0.25716665916550
  N   -1.14013136382990     -5.39934845936356      0.25608205223456
  H   -2.07264476042413     -7.23603287929440      0.45758269525541
  H   0.05109781461798     -8.55922085727643      0.01961011102993
  H   2.16056244410364     -7.21440291402001     -0.42149361890317
  H   -3.40036479048332      3.47482089536398     -0.15926915245390
  H   -7.06661756312727      1.42858852748232      0.29282515630671
  H   -4.14931914368663     -1.24792267173826      0.37071339429184
  C   -5.91997400120229     -3.02393892741109      0.74561576964806
  C   -6.93092010720003     -3.91982224380333      1.06978346888517
  H   -6.73224365111759     -4.99253479770284      0.98402299974687
  H   -4.94406285648211     -3.39373992832806      0.41719552785188
  H   -7.57954874136495     -0.11995269084894      1.42875021837041
  H   -9.35600529883061     -1.72088270869581      1.95459045442098
  H   -9.59154525474399     -5.05731909178926      0.94930212249100
  H   -10.18893613608083     -3.96133990357483      2.21637018531161
  H   -8.96382379904870     -5.19298897882986      2.60239161494758
