86
Coordinates from ORCA-job ./opt_b3lyp_cdz
  N   -5.17149924929704     -0.66973940739173      0.25362392351104
  C   -5.01225807119314      0.68637817347757      0.08751835628187
  C   -5.94709674135197      1.70194647883259     -0.00735489008701
  N   -5.26041340228921      2.90934413358787     -0.20467201651818
  C   -3.91729163108709      2.67419189320606     -0.22799800472844
  C   -3.69392560546141      1.31291883407317     -0.05110397067167
  C   -2.40386302628070      0.65271813151948     -0.04207846447850
  N   -2.44537210312571     -0.70969517335189     -0.03290401538587
  C   -1.34701270142169     -1.46971390040259     -0.04830787367340
  N   -1.40531506146629     -2.80456930871056     -0.05050694861772
  C   -0.23469884944588     -3.46144456926500     -0.07989039364603
  C   -0.31910193180016     -4.96549513330589     -0.08577200170213
  N   -1.53840123768121     -5.50442044514154      0.07667065868945
  C   -1.59920170980761     -6.83888973109878      0.07153928472775
  C   -0.46932400232947     -7.64144418770620     -0.09620715004285
  C   0.74332984001462     -6.96910343735566     -0.25821577347928
  N   0.83229213492098     -5.63621305187503     -0.25294046246879
  H   1.68151079009399     -7.51807874943776     -0.39792734001249
  H   -0.53048880241851     -8.73120254133721     -0.10045875226524
  H   -2.59299332533480     -7.28048201923842      0.20738696317765
  N   1.00206743024489     -2.93943794948872     -0.10473357442775
  C   1.09350762522797     -1.60647864120872     -0.09629948708201
  N   2.27004623962890     -0.97403199733564     -0.10671059923381
  C   2.38098978085611      0.38438347675929     -0.08722171022351
  C   3.73665879390209      0.89657941983885     -0.07470889015403
  C   4.11071813174230      2.22277387164331      0.11393437619957
  N   5.47167403959345      2.30684870953749      0.08915571006213
  C   6.01907098400104      1.03230392419625     -0.12095981005734
  C   4.97661843253914      0.12826548416955     -0.22237974117259
  N   4.98319513124232     -1.23552776862102     -0.40110159012560
  C   6.02087827326880     -2.11268141563349     -0.69689896683610
  C   5.74383950909518     -3.49582721698013     -0.59289022017364
  C   6.72355652715680     -4.44042428017830     -0.88189886996081
  C   8.00670470061179     -4.04317612245764     -1.28222626917315
  C   8.28050568174702     -2.67974281683780     -1.40233997407587
  C   7.30646394376372     -1.71729787762622     -1.11695889525028
  H   7.53927024309731     -0.66529880330326     -1.26738135192894
  H   9.26926196656973     -2.34849520026256     -1.73118042825473
  H   8.77567398050339     -4.78658844072092     -1.50238703843908
  H   6.48212411496023     -5.50268984022689     -0.79127358598599
  H   4.74394095991894     -3.81505071949362     -0.28461259185444
  H   4.04697106239835     -1.63540994007810     -0.29401056853851
  H   7.08633433507583      0.87375356728872     -0.10056865693994
  C   6.18940700470026      3.51296562626531      0.24806748330908
  N   5.44717847663414      4.59389068880126      0.51392546356837
  C   6.07776587309859      5.76160612605345      0.67649993480633
  C   7.46298136500078      5.91510300344869      0.58730534218780
  C   8.22516647059478      4.77833680843570      0.30439911499073
  C   7.58933507629671      3.55148455767233      0.12743931920879
  H   8.16628430125566      2.65800495536414     -0.10518897757880
  H   9.31231138371798      4.84272235438698      0.21785417737709
  H   7.92559471395491      6.89259013111532      0.73225471801518
  H   5.43502967289978      6.62181774741198      0.89144924298166
  H   3.52615828305349      3.11682375354684      0.28326548494296
  C   1.20644882389272      1.19210124059529     -0.07327718193019
  C   -0.01334400338861      0.48503602213426     -0.06424547031757
  C   -1.14634092240329      1.32418255015304     -0.05014235072300
  C   -0.58920986452883      2.65590211419194     -0.04869199576613
  C   0.80204755132147      2.57775175836427     -0.06623133408796
  H   1.46124977208319      3.44215590018015     -0.08211730950853
  H   -1.14700533939606      3.58884180766556     -0.02793046925429
  N   -0.08875629135779     -0.86064724593970     -0.06936298570292
  H   -3.23627895063503      3.49901273212110     -0.38786307156036
  C   -5.83863384959799      4.18936743582307     -0.35410411440104
  N   -4.97924635497122      5.18354927741398     -0.60518713012409
  C   -5.47501847708560      6.41579942985921     -0.75812651229059
  C   -6.83499432140094      6.72171442783530     -0.67329546878132
  C   -7.72056428530082      5.67407318604127     -0.40607888354604
  C   -7.22625684660886      4.38228418246380     -0.23954230506489
  H   -7.90047659094764      3.55627521833649     -0.01948022241871
  H   -8.79426618757929      5.85820791775239     -0.32377647809666
  H   -7.18509820307800      7.74607797871043     -0.80969617395339
  H   -4.73934520333827      7.20120140424063     -0.96111885813315
  H   -7.02533050353159      1.66369307990641     -0.03060662141563
  C   -6.30168017778700     -1.42846044198597      0.53779979245266
  C   -7.53687751534684     -0.89633428333708      0.95811472595810
  C   -8.61324689318875     -1.74690733444085      1.23092204110042
  C   -8.49259251621852     -3.13114904628076      1.09794509617726
  C   -7.26009636140687     -3.66506752292833      0.69746042797743
  C   -6.18009082966824     -2.83280701245367      0.42080404717838
  H   -5.22073475618285     -3.25847785432589      0.11227032622920
  H   -7.13814196163911     -4.74669821117884      0.59689340427706
  H   -9.34050263030255     -3.78629535482288      1.30836734374865
  H   -9.56025587979376     -1.31070451484952      1.56016377464663
  H   -7.65169627056490      0.17354838348096      1.11838668690816
  H   -4.28531689334929     -1.17068270908055      0.14556005742847
