90
Coordinates from ORCA-job ./opt_b3lyp_cdz
  O   -1.10127895948707     -9.11390143909483      0.03458559197798
  N   -0.01125227717010     -8.55579269550523     -0.00106818978645
  O   1.07751560588189     -9.11636016528721     -0.03659708957630
  C   -0.00960489487778     -7.08636572099749     -0.00139883028450
  C   -1.20521248298742     -6.36821849841744      0.03777519359399
  N   -1.20729430518656     -5.03626097008907      0.03733395638028
  C   -0.00662519767686     -4.43018688333750     -0.00198950829429
  C   -0.00494432310133     -2.92454142641035     -0.00233156713804
  N   -1.21029497494241     -2.33820197242412      0.04159015657822
  C   -1.22634174681988     -1.00020116061847      0.03830337951223
  N   -2.36327172683748     -0.30431899616075      0.06605379669996
  C   -2.40040132842995      1.05999729304347      0.05024988861505
  C   -3.72210246105131      1.64459309459928      0.05370769589801
  C   -4.03032892757641      2.99709949047527     -0.12015808123779
  N   -5.37805785805385      3.15417459446121     -0.07025810101311
  C   -5.99041739665039      1.91525283081515      0.14632987316142
  C   -4.99880506181624      0.94851572596726      0.21728691045305
  N   -5.08784504715259     -0.41534644411097      0.37301833802120
  C   -6.17171801292198     -1.23037675573306      0.68393275401142
  C   -7.42468692733140     -0.76137483738065      1.12539863325112
  C   -8.44873552589205     -1.66608123874281      1.42439530729654
  C   -8.25759190534740     -3.04282718620860      1.29651664278584
  C   -7.00742324951520     -3.51361099112452      0.87278044876887
  C   -5.97896489039159     -2.62681383488161      0.57005503906181
  H   -5.00547228756146     -3.00313869695922      0.24228832339340
  H   -6.83088776436292     -4.58780639561335      0.77413073260949
  H   -9.06519856571619     -3.74046745409981      1.52758295770257
  H   -9.41100931863220     -1.27819621305545      1.76920277042242
  H   -7.59539282483303      0.30195888790505      1.27809296085109
  H   -4.18019977820683     -0.87118966705981      0.25177946833670
  H   -7.06787514978193      1.83285449153083      0.11290497609471
  C   -6.06933393989505      4.38951727280401     -0.19744981420934
  C   -5.61085733826714      5.36348189599556     -1.09719707143593
  C   -6.28679229911089      6.58037228850315     -1.20630729142065
  C   -7.42988616693370      6.82804269314912     -0.43968494087373
  C   -7.89101214964203      5.84893214377305      0.44580331120273
  C   -7.21408563383396      4.63445673432482      0.57523930435703
  H   -7.55551151697199      3.88397786919827      1.28981844310637
  H   -8.78013606484234      6.03354710967503      1.05298411753650
  H   -7.96064624794376      7.77767963808547     -0.53477916182484
  H   -5.92491486832000      7.33285587656120     -1.91068683386070
  H   -4.74425189649024      5.15621606998344     -1.72759381435494
  H   -3.37755090092144      3.85105439202233     -0.25012158243350
  C   -1.17848955410574      1.79800778179609      0.02357488459987
  C   -0.00056602557239      1.02271350741921     -0.00329752242098
  C   1.17908269754091      1.79536482375630     -0.03066336603850
  C   0.69902914247576      3.15493229114830     -0.02222336352895
  C   -0.69539734239963      3.15649715936169      0.01427996708204
  H   -1.30029128794514      4.05954666178282      0.04213304983125
  H   1.30596556483515      4.05659222279001     -0.05072446144967
  C   2.39934750159125      1.05463956026377     -0.05694417158646
  C   3.72232478011873      1.63636594456288     -0.06067142169214
  C   4.99747614806732      0.93751790702351     -0.22449257603778
  N   5.08352103644921     -0.42657069208801     -0.38009200295740
  C   6.16535719633072     -1.24386878728451     -0.69210368634763
  C   5.96967052758041     -2.63991507712872     -0.57846833936695
  C   6.99597440380585     -3.52884783160183     -0.88224887708806
  C   8.24682360438636     -3.06064508716163     -1.30683883265022
  C   8.44082824225644     -1.68427731676716     -1.43447419747455
  C   7.41898534599483     -0.77744672063268     -1.13440698891978
  H   7.59186657554968      0.28555732416032     -1.28691660888343
  H   9.40364393643612     -1.29833709052083     -1.77992625994725
  H   9.05274040658013     -3.75995887226926     -1.53874335792165
  H   6.81719411118314     -4.60268765738933     -0.78376832681714
  H   4.99562131426472     -3.01422575731318     -0.25005364905551
  H   4.17494848008096     -0.88044275170251     -0.25844869411601
  C   5.99119929529835      1.90212706772628     -0.15380104259248
  N   5.38155855453732      3.14238279464180      0.06277207569902
  C   4.03350072954803      2.98821985049875      0.11296011981624
  H   3.38258048387195      3.84356439899100      0.24312000284191
  C   6.07552489996340      4.37623429237757      0.18974773512454
  C   7.22063360719125      4.61864371033652     -0.58320459711575
  C   7.90023278703252      5.83164347555672     -0.45397490894427
  C   7.44143262075370      6.81180402958014      0.43155996484354
  C   6.29797110523474      6.56666089532880      1.19844624011419
  C   5.61936858396940      5.35123685776751      1.08954923274868
  H   4.75246315206893      5.14589492938724      1.72016367795296
  H   5.93788751737663      7.31996223898105      1.90287044133291
  H   7.97428141319994      7.76028697220056      0.52648927864955
  H   8.78962745965871      6.01428529320220     -1.06134828231455
  H   7.56027448112324      3.86738267529755     -1.29781178306483
  H   7.06848435674100      1.81740012615658     -0.12062444529694
  N   2.35921524520799     -0.30960028463159     -0.07197687680117
  C   1.22073670028274     -1.00293884670354     -0.04385650216806
  N   -0.00205279546430     -0.32536537191833     -0.00293243439543
  N   1.20170598487675     -2.34090313344568     -0.04651710449972
  N   1.19268211133010     -5.03896872671516     -0.04104646654071
  C   1.18761094492123     -6.37091968086724     -0.04089401377355
  H   2.14713172577658     -6.89303232938240     -0.07247720450162
  H   -2.16590422248766     -6.88815825923454      0.06959199271370
