86
Coordinates from ORCA-job ./opt_b3lyp_cdz
  N   5.08262967475004      0.93170894951917     -0.07348925256455
  C   4.99929530173164     -0.44081045164716      0.05412458227157
  C   5.99267619449922     -1.39923684529081      0.16506569127436
  N   5.38016483901127     -2.64591171022975      0.32105465063596
  C   4.02935889496843     -2.49756086641744      0.29906111966487
  C   3.72175301580729     -1.14535498934267      0.13415225329308
  C   2.39646275656640     -0.56412583362292      0.07252883339199
  N   2.35966174686258      0.79792780687073      0.05903057611975
  C   1.22073377748348      1.49539170309616      0.02493570997806
  N   -0.00011070500038      0.81644285816066     -0.00161747329098
  C   -1.22088187755029      1.49552775098387     -0.02839874722557
  N   -2.35991316105596      0.79819762061290     -0.06199722998218
  C   -2.39683106126848     -0.56385577393954     -0.07439327250246
  C   -3.72217265801864     -1.14499709760183     -0.13575235440330
  C   -4.99958023386106     -0.44036913678331     -0.05490323521995
  C   -5.99310609941534     -1.39864852264706     -0.16575977518390
  N   -5.38079467358179     -2.64530919274622     -0.32264874938131
  C   -4.02994959912977     -2.49708496962867     -0.30120784044646
  H   -3.37732049838952     -3.35775228589615     -0.37718937993091
  C   -6.07423862243537     -3.87833529665998     -0.46628004855239
  C   -5.57864334241454     -4.86762680063042     -1.32850688247291
  C   -6.25727532679718     -6.08152745898177     -1.45378764273102
  C   -7.43845634390730     -6.31053359019005     -0.74111090484050
  C   -7.93553401882461     -5.31615467860030      0.10706461242172
  C   -7.25677159082521     -4.10454364582493      0.25307350006938
  H   -7.62746743468878     -3.34233197666819      0.94022950018685
  H   -8.85461412525733     -5.48635064076534      0.67233640641399
  H   -7.97071769629595     -7.25793962897387     -0.84896992257382
  H   -5.86662678488454     -6.84645997466269     -2.12873505114609
  H   -4.68033720281693     -4.67505261334554     -1.91784532074663
  H   -7.06690578843620     -1.31084977389635     -0.25536699371564
  N   -5.08274162704383      0.93214017751960      0.07311465846995
  C   -6.15688451048896      1.75649291608982      0.33803577357286
  C   -7.46255519657173      1.33007271622245      0.65210982111432
  C   -8.44226781263397      2.29371981017716      0.90285984930577
  N   -8.25132369384628      3.61813467836339      0.86818254729204
  C   -6.99731723051951      4.01260167471450      0.57877832281746
  C   -5.93837594989655      3.15397423187756      0.31362041910099
  H   -4.94388832253563      3.55033107081873      0.08990774909408
  H   -6.82901611044282      5.09527816384087      0.55618222086687
  H   -9.45786775177207      1.96302503987720      1.15126510810101
  H   -7.71876093976267      0.27720373328575      0.73992435598715
  H   -4.15946977484933      1.37169846658538      0.00232688289151
  C   -1.17850898348207     -1.30560250414486     -0.03566610093411
  C   -0.00018272991654     -0.53212475188150     -0.00101974437110
  C   1.17801174836453     -1.30575534360129      0.03465968589877
  C   0.69618000599091     -2.66619787650274      0.01931911075315
  C   -0.69695146911978     -2.66610319174198     -0.01828263544094
  H   -1.30372027988429     -3.56837756322669     -0.02340720147413
  H   1.30270930143946     -3.56861676472085      0.02614507719084
  N   -1.20521160266871      2.83086659633504     -0.02480563314609
  C   0.00004634616080      3.42264926845998     -0.00219814421910
  N   1.20523445622778      2.83073360433025      0.02069449438427
  C   0.00010826332356      4.92900762593092     -0.00250588702791
  N   1.19743662044920      5.53399382837109      0.05410576740171
  C   1.18374052860908      6.86997295327103      0.05347637353508
  C   0.00017168594646      7.60815488088875     -0.00301408222982
  C   -1.18343613940911      6.87000923399121     -0.05922522194614
  N   -1.19718992345535      5.53403609681797     -0.05934751803028
  H   -2.15937294665312      7.36612874960793     -0.10613421425415
  H   0.00020176141526      8.69958614607764     -0.00321946884814
  H   2.15970024714606      7.36606473433722      0.10019388565670
  H   3.37667846803920     -3.35828845907219      0.37381867638408
  C   6.07341793917401     -3.87909874070882      0.46420431431221
  C   5.57733093878602     -4.86887650268117      1.32559009030276
  C   6.25576790925912     -6.08293353231693      1.45040287184172
  C   7.43723630427755     -6.31162225880619      0.73809983780909
  C   7.93480062575601     -5.31676494545082     -0.10922923417573
  C   7.25624188605310     -4.10498380652675     -0.25477282479140
  H   7.62732001094327     -3.34238067783491     -0.94128765583515
  H   8.85410874595458     -5.48671106036532     -0.67420509936848
  H   7.96934276526258     -7.25915651903283      0.84559442245288
  H   5.86473738369739     -6.84824817731519      2.12469528104030
  H   4.67878642236022     -4.67656173119608      1.91465056553035
  H   7.06644163893007     -1.31165570522016      0.25528852204675
  C   6.15711902919323      1.75622682809259     -0.33640835350974
  C   5.93829823610114      3.15367639594345     -0.31235078511016
  C   6.99755039598071      4.01252976654310     -0.57550368909992
  N   8.25217858935230      3.61831343400855     -0.86257978910463
  C   8.44344029807354      2.29394080708022     -0.89692812468128
  C   7.46344708627236      1.33008470544963     -0.64805146354610
  H   7.72011242050202      0.27728657152388     -0.73537828138359
  H   9.45957212585471      1.96344031127926     -1.14341262857672
  H   6.82898366512605      5.09516974733238     -0.55319405726506
  H   4.94331043940850      3.54983102348786     -0.09049198391276
  H   4.15921344989792      1.37121194996205     -0.00409615128222
