91
Coordinates from ORCA-job ./opt_b3lyp_cdz
  F   -0.94126156557758     -8.87117079677642      0.73283746889411
  C   0.02156215412697     -8.34715326390998     -0.05723137565287
  C   0.02542495852243     -6.84551433722781     -0.00500349723141
  C   -1.14023128997174     -6.11267141077969      0.23766860087592
  N   -1.15393096538273     -4.77975322807684      0.24561901216268
  C   0.01989468356429     -4.16805689527331      0.01588805495980
  C   0.01402847859291     -2.66235846199032      0.01301595642279
  N   -1.19421712641655     -2.08177050487513     -0.03460181785234
  C   -1.21671351996140     -0.74410975169042     -0.03765650747396
  N   -2.35753700656860     -0.05373124990141     -0.07344712820198
  C   -2.40129384505261      1.31005508165515     -0.06434031474953
  C   -3.72678306836324      1.88768501918044     -0.07673794831285
  C   -4.04254720098453      3.24039982223459      0.07832396261394
  N   -5.39141952587139      3.38967200798674      0.02587397788884
  C   -5.99664038193311      2.14434525585473     -0.17346285961988
  C   -4.99945273861788      1.18251176819989     -0.23119692935187
  N   -5.08023129928026     -0.18417652261505     -0.36691368151974
  C   -6.16037598068420     -1.01072275823417     -0.65804185302190
  C   -7.41745306117393     -0.55722271386575     -1.10445102291650
  C   -8.43755505685107     -1.47296170046726     -1.38223871807544
  C   -8.23861479954848     -2.84596823492312     -1.22829244755151
  C   -6.98447229295961     -3.30165247444000     -0.79964616169057
  C   -5.95981990101597     -2.40376647437544     -0.51753963097108
  H   -4.98350623046835     -2.76822361886445     -0.18476224346885
  H   -6.80199563398175     -4.37281685389774     -0.68058933346439
  H   -9.04323912447613     -3.55225563786128     -1.44300271624383
  H   -9.40310443879092     -1.09719042666031     -1.73138135355972
  H   -7.59367118609814      0.50208009939140     -1.27766811622077
  H   -4.16844567695201     -0.63173394204591     -0.24353424657889
  H   -7.07356934445390      2.05581489890717     -0.13928337762592
  C   -6.08909084656862      4.62286126640253      0.13451453493001
  C   -5.63251241962927      5.61514983317104      1.01516178655579
  C   -6.31491939224211      6.82989979719790      1.10594786980147
  C   -7.46267579617796      7.05787486335840      0.34019284942236
  C   -7.92184262186326      6.06081202726399     -0.52602306675871
  C   -7.23858290196273      4.84808742489135     -0.63729292780409
  H   -7.57879986522917      4.08361951120996     -1.33743503716272
  H   -8.81456567400118      6.22977872923402     -1.13251840803255
  H   -7.99840802998986      8.00604534858935      0.42101651062760
  H   -5.95426147960896      7.59657061843966      1.79552854938764
  H   -4.76208563111178      5.42402421712847      1.64536156949297
  H   -3.39416270610457      4.09964701847619      0.19431195201012
  C   -1.18384377891987      2.05490364301665     -0.03517238036352
  C   -0.00221365310485      1.28617120860335      0.00007947863431
  C   1.17312688000127      2.06476529807186      0.02993313253834
  C   0.68587782448596      3.42243130300729      0.01410402051736
  C   -0.70770707324962      3.41657964251875     -0.02864773105479
  H   -1.31727396498103      4.31631241878492     -0.06200382833897
  H   1.28806900660218      4.32731974957998      0.04122442986149
  C   2.39662269694651      1.33012472329299      0.06385423952463
  C   3.71742050281465      1.91853031471796      0.07193876735916
  C   4.99572126374141      1.22471425861435      0.23133330321839
  N   5.08727180787878     -0.14028561919156      0.37714341894270
  C   6.17384416482137     -0.95612024006420      0.67449109025034
  C   7.42741538905811     -0.48941194306204      1.11713312252751
  C   8.45460683392259     -1.39502143260960      1.40192799521532
  C   8.26628350757976     -2.77068920449009      1.25877846520982
  C   7.01567222825480     -3.23941836060381      0.83388807000319
  C   5.98406863400962     -2.35173603478415      0.54492012519663
  H   5.01056246855007     -2.72635366711892      0.21520342904552
  H   6.84146481428626     -4.31286167419555      0.72327742620848
  H   9.07636341069154     -3.46902382115563      1.47892171486378
  H   9.41725194692920     -1.00905874967965      1.74795891117360
  H   7.59549104686702      0.57254404930671      1.28194024100373
  H   4.17909172145716     -0.59595368860382      0.25688100209489
  C   5.98517730287291      2.19410691174230      0.16629638363097
  N   5.36992309788526      3.43299998601182     -0.04207360693418
  C   4.02228836012623      3.27254579371358     -0.09311105370069
  H   3.36698871934955      4.12566841946413     -0.21530266555430
  C   6.05772651769018      4.67084036779848     -0.16038101763271
  C   7.20578450902014      4.91096537194810      0.60906531147400
  C   7.87941731008582      6.12815103324279      0.48822974915059
  C   7.41198815903990      7.11495715404395     -0.38528264776177
  C   6.26567987706613      6.87215033926360     -1.14864224990503
  C   5.59289775413173      5.65279432911062     -1.04826929338143
  H   4.72369011410600      5.45001420124023     -1.67649927383627
  H   5.89866326272750      7.63070544985519     -1.84382167143182
  H   7.94020112836781      8.06667048377824     -0.47360983691116
  H   8.77108316594321      6.30873172209412      1.09293014163426
  H   7.55237775346388      4.15452206804890      1.31477610349112
  H   7.06277107917849      2.11397343694211      0.13248916297766
  N   2.36396331098727     -0.03386694385198      0.08224834685133
  C   1.22883799146916     -0.73375600454921      0.05122696190290
  N   0.00328718882587     -0.06252216043236      0.00465712606145
  N   1.21740567777237     -2.07155123637530      0.05679380577789
  N   1.19932758392591     -4.77150241979662     -0.20769563394212
  C   1.19176733476172     -6.10435281752602     -0.21779356662131
  H   2.14951433792396     -6.60338043314725     -0.39555482753142
  H   -2.08967392087926     -6.61857824679875      0.43865278104591
  F   -0.20526919037032     -8.80285658381914     -1.31048049784945
  F   1.20569842609932     -8.86249739967118      0.34056268114519
