94
Coordinates from ORCA-job ./opt_b3lyp_cdz
  N   -5.05003164084850     -0.98291808863801     -0.36023376662590
  C   -4.99291811193047      0.37724438111164     -0.11910344285969
  C   -6.00563764056177      1.30199853116257      0.05080399933350
  N   -5.42249535550960      2.54863240979289      0.29676856482977
  C   -4.06761346057335      2.43173171004437      0.28011285676818
  C   -3.73121675881438      1.09904428696888      0.02810894656780
  C   -2.39424986050280      0.54886034519289     -0.02445349517738
  N   -2.32146781427119     -0.81291278217071     -0.04460233617273
  C   -1.16263808275558     -1.47707836147412     -0.04645086357023
  N   -1.10816779949709     -2.81302980603789     -0.04338222455464
  C   0.11476376099750     -3.36634414140860     -0.03558507099787
  C   0.15720303600722     -4.87099020610713     -0.03085795436883
  N   1.30010840582910     -5.44444632161678     -0.44057549424900
  C   1.32272168705323     -6.78046865717261     -0.43584015765601
  C   0.23278216723101     -7.54839379808576     -0.02229377442249
  C   -0.89881421211668     -6.84055689861582      0.38648412242742
  N   -0.95159233181432     -5.50537478622661      0.38268254752524
  H   -1.79937796193259     -7.36146138758994      0.73108021354188
  H   0.26359655136336     -8.63944807357280     -0.01879052848905
  H   2.25128206207297     -7.25194775495528     -0.77728405006606
  N   1.30463437129298     -2.74507891183370     -0.03159661363476
  C   1.28373826865157     -1.40820847281268     -0.03693583773848
  N   0.04155632568657     -0.76609558406922     -0.04352676946053
  C   0.00381652346192      0.58231785287285     -0.04821127228600
  C   -1.19552575674095      1.32236873640880     -0.03925172870573
  C   -0.75307952563544      2.69599970304751     -0.05281586691202
  C   0.64027728705565      2.73528990578820     -0.06190176855737
  C   1.15959725957535      1.38869483956605     -0.06371015688896
  C   2.39994272113165      0.68360733934911     -0.07379142507166
  C   3.70420002640081      1.30682076670061     -0.13170823055375
  C   5.00470246662063      0.65653896462160      0.01314030548457
  C   5.96383775315433      1.63563096648675     -0.16331281058914
  N   5.31145432750656      2.84721998373267     -0.41065170823410
  C   3.96529634706272      2.65535935710654     -0.38870645709173
  H   3.28242077529852      3.48067078809681     -0.54582339041388
  C   5.96397357523453      4.08914287920818     -0.63037148439300
  C   7.15530575986718      4.38420077145754      0.04947919533803
  C   7.79531553801354      5.60573384814153     -0.16959756998387
  C   7.25295568618027      6.54405044549971     -1.05317546927937
  C   6.06426791942010      6.24691566903788     -1.72731517797983
  C   5.42363590681331      5.02242677339090     -1.52829388058093
  H   4.51932695416453      4.77765077867045     -2.08817428921923
  H   5.63731410249035      6.96650680107423     -2.42973961465554
  H   7.75534705633611      7.49953179802263     -1.21840340108035
  H   8.72105982606614      5.82853354836860      0.36603552410061
  H   7.56208281424193      3.66608727535762      0.76303129061282
  H   7.04223338175480      1.57478426780145     -0.16483724455210
  N   5.13717626260757     -0.69758786390305      0.25848021558503
  C   6.27233398847055     -1.50432035899368      0.30052861133274
  C   6.17077567098739     -2.83571501190381     -0.15257426351416
  C   7.24455866039721     -3.73772131394781     -0.09029695253159
  C   8.48654619217444     -3.36405091718364      0.41820354702092
  C   8.62096240238961     -2.04699722163698      0.88931366824296
  C   9.68655647047944     -1.30490709355726      1.52753508891134
  C   9.17997745575125     -0.07703349905281      1.80566109672770
  O   7.87393039316936      0.04933693097045      1.39948565775030
  C   7.52887457287425     -1.15583695316493      0.83120950767795
  H   9.60071954699300      0.80387445784357      2.28281292866126
  H   10.69094849518044     -1.65452821174598      1.75354519517932
  H   9.31959623799285     -4.06776735389472      0.46356216500657
  H   7.09292768987248     -4.75466096348929     -0.46002683019998
  H   5.21214742347966     -3.16454342464418     -0.56214370609863
  H   4.24533014692928     -1.18396111243267      0.12923467853800
  N   2.40328776875676     -0.67994281951551     -0.04396015398752
  H   1.22347152055388      3.65307274055621     -0.05400040098578
  H   -1.38739915422435      3.57910937948343     -0.06938217570472
  H   -3.43224007951456      3.29400080668825      0.43818702284443
  C   -6.14359986878172      3.75300623079328      0.51080822940014
  C   -5.65920598986976      4.71698001978621      1.40824052199050
  C   -6.36748913249253      5.90453384433767      1.60168869626435
  C   -7.56825564455067      6.13373657092946      0.92243989034988
  C   -8.05444936957519      5.16466775285997      0.03936120078518
  C   -7.34687429150446      3.97997344758164     -0.17413845773922
  H   -7.71044876238529      3.23856691868651     -0.88718781685446
  H   -8.98909449367695      5.33446781804053     -0.50021673478952
  H   -8.12343893824294      7.06029158059358      1.08338092195033
  H   -5.98374768890716      6.64837307351742      2.30379313360442
  H   -4.74481793135511      4.52410419454692      1.97202086889850
  H   -7.07903327646819      1.18134375782138      0.04900452174762
  C   -6.14181611471990     -1.84717188158135     -0.40983163503651
  C   -5.97985996006081     -3.16825386851316      0.05534384015334
  C   -7.00622934908484     -4.12347395820175     -0.01403424038064
  C   -8.25828633739257     -3.81628793822676     -0.54197734117339
  C   -8.45216787010389     -2.51108249162898     -1.02523820140419
  C   -9.54469065316660     -1.82776880695737     -1.68328747141175
  C   -9.09620534766026     -0.57810541547278     -1.96424921572460
  O   -7.80374532569615     -0.38368282404744     -1.54180514327289
  C   -7.40687965539214     -1.56599259518700     -0.95979550911618
  H   -9.55381660998539      0.27721317907085     -2.45386413500545
  H   -10.52724017165589     -2.22873806787349     -1.91981051236376
  H   -9.05431916776793     -4.56127552976953     -0.59280000385501
  H   -6.80903472254832     -5.12880178805686      0.36582318326321
  H   -5.01182423297487     -3.44536495653089      0.48065870263127
  H   -4.13489894872948     -1.42083917876878     -0.22164341451240
