56
Coordinates from ORCA-job ./opt_b3lyp_cdz
  N   -5.10058476798072     -0.56467862182855     -0.05490223974325
  C   -4.99130919845768      0.80193342659672     -0.15793690308427
  C   -5.99441161420835      1.75772986017805     -0.23928618446271
  N   -5.37475105564536      2.99933945872750     -0.29683717977470
  C   -4.03112410663759      2.87926764849523     -0.26920657566056
  C   -3.71691592317372      1.51273333545514     -0.18512314396776
  C   -2.39959692242034      0.92871862079990     -0.12412676499984
  N   -2.36527102676419     -0.42526229437610      0.07190503978722
  C   -1.22887258157157     -1.11381502270611      0.17144644537922
  N   -1.21368324293979     -2.44440390819637      0.35911723990040
  C   -0.00350851354474     -3.01083370464990      0.43860043335603
  N   1.20778805453146     -2.44705320146121      0.35733781984839
  C   1.22560099370636     -1.11650468420336      0.16960326346637
  N   2.36335134924449     -0.43044704333359      0.06830026334612
  C   2.40040344758366      0.92345283650322     -0.12786734306097
  C   1.17840530130558      1.64867508624350     -0.25109960760601
  C   0.00035032067047      0.88695347978203     -0.12177640339093
  C   -1.17623337499488      1.65125726973689     -0.24927903401909
  C   -0.69408189012427      2.99054825496844     -0.49087401530133
  C   0.69880621243787      2.98902558570277     -0.49194988186526
  H   1.30827607168490      3.87126531368443     -0.67214591967843
  H   -1.30189875447405      3.87410173662234     -0.67020916301927
  N   -0.00096729544585     -0.44933619475198      0.08304680545628
  C   3.71895730901234      1.50450021169088     -0.19102678277159
  C   4.99185354885843      0.79093016283321     -0.16533959541545
  C   5.99690860127289      1.74451237043127     -0.24858942130340
  N   5.37987046338040      2.98743536338348     -0.30586608684772
  C   4.03603044394097      2.87030664828526     -0.27625517299882
  H   3.39274198105060      3.74201361480891     -0.29393585719794
  H   5.87751181568179      3.86561924683828     -0.35995233536687
  H   7.07486705694370      1.64730998461342     -0.23666141229090
  N   5.09831839735840     -0.57585734170660     -0.06171115783469
  C   6.25357819159703     -1.33256066264368     -0.19098158764071
  N   6.27143601430397     -2.61356513940912      0.31586654195663
  C   7.50218121709617     -3.20023357167574      0.07472886529505
  C   8.27769718796987     -2.27532896477396     -0.58876622294508
  C   7.49625269521882     -1.08895239617124     -0.76399826253233
  H   7.79050098616491     -0.18972862636770     -1.29568041406186
  H   9.29925394793397     -2.42960370324537     -0.92924179365760
  H   7.70757664935700     -4.21865259567246      0.39105228542502
  H   5.50967623720254     -3.03343288631816      0.83186624388110
  H   4.18768705928303     -1.03793266034295      0.00986147747633
  H   -0.00458249214586     -4.09605359137915      0.59181385595507
  H   -3.38597332209949      3.74959529872846     -0.28714358412636
  H   -5.87054295010554      3.87864424951149     -0.34967614944145
  H   -7.07256230247355      1.66285144657060     -0.22594818027704
  C   -6.25772398386019     -1.31878448959907     -0.18250767075088
  N   -6.27780193270895     -2.59973112124671      0.32440482294980
  C   -7.51020542320895     -3.18360711316389      0.08495655944434
  C   -8.28451693948500     -2.25696183158439     -0.57751749846485
  C   -7.50061134910833     -1.07237710033061     -0.75386097593713
  H   -7.79352098942587     -0.17249840994486     -1.28518119745495
  H   -9.30688019106438     -2.40892904233426     -0.91660732618794
  H   -7.71748439668880     -4.20154878595821      0.40158743137040
  H   -5.51634817386045     -3.02127894215783      0.83948668211956
  H   -4.19092000574641     -1.02878189475500      0.01566248864919
