94
Coordinates from ORCA-job ./opt_b3lyp_cdz
  N   -4.01166805628261     -2.22314467361938      0.26211061588359
  C   -4.12762359047836     -0.86246879970283      0.48774613145615
  C   -5.26733491045976     -0.10134983257931      0.66762584007814
  N   -4.87813563168788      1.22704682085067      0.86573578807320
  C   -3.52029022240603      1.31527599923705      0.81234468171465
  C   -2.99088970146628      0.04359915815155      0.58159674312232
  C   -1.58768422137941     -0.30770030667093      0.51050016248598
  N   -1.31348277354606     -1.64113972195790      0.58101273359851
  C   -0.06536695783188     -2.12021029204510      0.57516159240017
  N   0.19680196926325     -3.42703912556257      0.67018421277732
  C   1.49266765359863     -3.78090476522087      0.68874328668086
  C   1.76536529257270     -5.25697960683838      0.80346418426533
  N   2.95752118694597     -5.61530348561204      1.30724674305303
  C   3.18350729210911     -6.92850874671005      1.40624559748507
  C   2.24974243654987     -7.88447847094946      1.00261358478120
  C   1.04836140882150     -7.39196481655029      0.48999442461865
  N   0.79159521863460     -6.08445307312070      0.39092957976357
  H   0.25904866884033     -8.06944638517008      0.14450853249334
  H   2.44740976256273     -8.95494362051043      1.08342409632177
  H   4.15186767662529     -7.22438992896634      1.82602346485172
  N   2.57217058897535     -2.98952800525552      0.61920391783924
  C   2.34995418648780     -1.67399884249944      0.50369271935587
  N   1.01641536810953     -1.23504479686183      0.48092315805216
  C   0.76966165766658      0.08304440045173      0.37887050144060
  C   -0.52499189699953      0.63333097433229      0.39398431927543
  C   -0.29734875725429      2.05723303621914      0.27994881208684
  C   1.06860539806275      2.30904488119193      0.21315424316878
  C   1.78944095518119      1.05778944372733      0.26798114526738
  C   3.11262482377505      0.54755327546702      0.27790999842016
  C   4.34262512413650      1.34397426614193      0.21104057608550
  C   4.63165807534150      2.68232411508118     -0.25737159924893
  N   3.75176117351922      3.61289412677240     -0.85767322780360
  C   3.31324902511838      3.48219122395496     -2.19078721550700
  C   3.56332295962963      2.35820526582178     -2.98569948109729
  C   3.07092441827132      2.27887082614634     -4.30211734095002
  C   2.33486342771284      3.31110595677803     -4.86963030512258
  C   2.06814474884278      4.45822278641871     -4.09336464538839
  C   1.33441390471075      5.64963436773368     -4.44955041424159
  C   1.26133057904241      6.55910024352335     -3.44069541363428
  S   2.07058894294479      6.02589237113640     -1.97628556886562
  C   2.54749449534476      4.51991276273876     -2.76350658703191
  H   0.76690032673011      7.52904055702755     -3.44714176451864
  H   0.88133517658284      5.80399597558479     -5.42981500050068
  H   1.96430467401983      3.24213265007456     -5.89446403034006
  H   3.28717529586344      1.38195535162583     -4.88731648291731
  H   4.15366951253303      1.53723246083175     -2.57780652305674
  H   3.96809723018607      4.57467799483050     -0.60883396953660
  C   5.97094405631017      2.91794882675360     -0.02501666604500
  N   6.52187299923635      1.79077049700947      0.57004168513802
  C   5.54824063814902      0.83739969478541      0.68856507153948
  H   5.73183643596789     -0.12647497272584      1.14931971756304
  C   7.87520153744713      1.65150909076427      0.98513897897253
  C   8.52404267287955      0.41489118999152      0.85636559090742
  C   9.84940095688553      0.28137803707116      1.27511666473767
  C   10.54065045976663      1.37562710963809      1.80463293223598
  C   9.89221146671970      2.60878274804651      1.92198359807875
  C   8.56147015522873      2.74998165041373      1.52248374037864
  H   8.04665861271821      3.70411571751059      1.64803147637284
  H   10.41980521781316      3.46859218903968      2.34122363592629
  H   11.57950367888620      1.26793781384176      2.12369430462826
  H   10.34803212311014     -0.68501563271380      1.17178412974519
  H   7.99792082610909     -0.43163115653313      0.41193651465049
  H   6.58413063164025      3.77279674302279     -0.29294225221019
  N   3.34145085336770     -0.78732240752111      0.40367110932155
  H   1.52696632235025      3.28801526296137      0.11612534749954
  H   -1.06229080277495      2.82860837216303      0.22648447376612
  H   -3.01807090223769      2.26687250146389      0.93524370898513
  C   -5.77087665257780      2.31197882675956      1.06803036037421
  C   -5.41274955410611      3.37555126391100      1.91075999152265
  C   -6.29197659392603      4.44474854698462      2.09241484391567
  C   -7.53753342304864      4.45581078958513      1.45659058734265
  C   -7.89588597847416      3.38756618319543      0.62851189457726
  C   -7.01867993615251      2.32015691357250      0.42599786541314
  H   -7.28660922174393      1.50327402532993     -0.24596340573030
  H   -8.86432384904792      3.38680239441779      0.12282409010023
  H   -8.22574800723212      5.29007455681913      1.60852450686890
  H   -6.00498797633077      5.26754689943619      2.75137876925499
  H   -4.45954924085739      3.35192374384213      2.44175872325898
  H   -6.30749670464142     -0.39200047254434      0.73281590740557
  C   -5.05620594159650     -3.15441630926160      0.18570793158850
  C   -4.99300326162080     -4.32200048015951      0.96162205999490
  C   -5.98072368546692     -5.31659929224392      0.88424069822779
  C   -7.07311050327464     -5.17545697535357      0.03648722202680
  C   -7.16350439340031     -4.02628510636899     -0.77311689249511
  C   -8.15536652087219     -3.71832714433477     -1.77548153758312
  C   -7.89589341869084     -2.56318514926558     -2.44384565926129
  S   -6.43657600847779     -1.75945228136033     -1.89377249368593
  C   -6.15527369419982     -3.02735675542435     -0.69756438766889
  H   -8.47720698328137     -2.11160470674283     -3.24659636598594
  H   -9.01523809868240     -4.35705608993190     -1.98206567890152
  H   -7.84309350230748     -5.94788949702108     -0.02351453416484
  H   -5.88709021629724     -6.20675203026592      1.51077359035095
  H   -4.14907192545163     -4.44197859490741      1.64501544042833
  H   -3.07612356333463     -2.57173152909807      0.48179889349839
