100
Coordinates from ORCA-job ./opt_b3lyp_cdz
  C   -9.14797321125051     -5.11475385531774     -1.26981883963681
  C   -7.90393179538660     -4.85193995848770     -0.45420077100927
  C   -7.21646344925759     -3.63828699263551     -0.56968210921028
  C   -6.07306941833661     -3.39752690648036      0.20516995857418
  N   -5.37964254565511     -2.16268510923798      0.07429006304800
  C   -4.03151984211670     -2.00612842167812      0.12206630552446
  C   -3.72227495661866     -0.65412841318580     -0.05006326211749
  C   -2.39944232771496     -0.06897709498616     -0.04775783560712
  N   -2.36387086457616      1.29429706727587     -0.06123601642788
  C   -1.22606594685370      1.99247650805798     -0.03436118762015
  N   -1.21196831188478      3.32900130693478     -0.03588930059398
  C   -0.00783037459765      3.92104188410483      0.00779935156090
  C   -0.01045945514261      5.42768276034935      0.00983707010942
  N   1.17807015966693      6.03572683769508      0.15627751947972
  C   1.16169826998580      7.37141702951566      0.15798025424419
  C   -0.01515535966384      8.10828243991598      0.01354142349765
  C   -1.18941909907206      7.36769913424894     -0.13295280558084
  N   -1.20110865636135      6.03196093147962     -0.13493990726183
  H   -2.16000991067944      7.86219316112947     -0.25362000747570
  H   -0.01706744693737      9.19977222102379      0.01505636808575
  H   2.13055287014590      7.86897283681713      0.28000751554764
  N   1.19837761093713      3.33310500984844      0.04996089088769
  C   1.21715546901587      1.99665579336747      0.04490619092805
  N   2.35740288446344      1.30240574586424      0.07024238154320
  C   2.39777145821067     -0.06070387535654      0.05322061309959
  C   3.72268845264083     -0.64118751078435      0.05568318919619
  C   4.99582969538890      0.06029193153584      0.21898986266411
  N   5.07543715140843      1.42557147152348      0.37637616822289
  C   6.14930551408806      2.24935471553212      0.69188908103555
  C   5.93445175253801      3.64530054268487      0.60650614089649
  C   6.95298724684988      4.54160238435035      0.91366536982955
  C   8.21535762973628      4.08283499794519      1.31465443362025
  C   8.42834034781395      2.70702587879787      1.41487398080733
  C   7.41487182505454      1.79220245008384      1.11061169659558
  H   7.60404851197718      0.72908197811748      1.24039905646814
  H   9.40043502622509      2.32756399368046      1.74137171478419
  H   9.01501973986242      4.78842431225750      1.54953777615165
  H   6.75857673510897      5.61462486012027      0.83729592967618
  H   4.95109685902362      4.01280864870258      0.29855083178366
  H   4.16190902554812      1.87231898410461      0.25893219634832
  C   5.99200577591673     -0.90159048800666      0.14619851058822
  N   5.38582516127872     -2.14350470138288     -0.06978274106070
  C   4.03708497564948     -1.99168809016989     -0.11854235448342
  H   3.38767985773088     -2.84810911608055     -0.24891296657481
  C   6.08296948693259     -3.37650719228560     -0.19707554877849
  C   5.61925233739385     -4.35180145023656     -1.09447591996140
  C   6.28955950413723     -5.57198462230883     -1.21753265135881
  C   7.44100359904390     -5.79168285944581     -0.44175943130062
  C   7.92392755408588     -4.82515800801403      0.44707260629872
  C   7.22844616339741     -3.61159469657783      0.56849960336266
  H   7.56544493093664     -2.85636562958984      1.28131396595531
  C   9.16317907167973     -5.07074827195991      1.27535353858939
  H   9.96263751597349     -4.35556658492881      1.01663076203461
  H   8.95584682895256     -4.94638727822188      2.35140998912578
  H   9.55732664503266     -6.08608484438839      1.12155184977031
  H   7.97552594952070     -6.74133471046415     -0.53857782747580
  C   5.80368031791882     -6.63207096914859     -2.17775772841719
  H   5.54911843531511     -7.56397612799105     -1.64479171778831
  H   6.58154625016827     -6.88659459841283     -2.91722749604099
  H   4.90969378008255     -6.30328536673881     -2.72806511919930
  H   4.74817149543035     -4.14212080197241     -1.71841320319098
  H   7.06904695377638     -0.81539353850521      0.11326472047746
  C   1.17890558897369     -0.80357376879373      0.02693946093933
  C   -0.00088463774761     -0.03227704440391      0.00238663051533
  C   -1.17794264254750     -0.80763910753730     -0.02432279383108
  C   -0.69400974128425     -2.16700784025286     -0.01816985669648
  C   0.69977528428700     -2.16460984643118      0.01658436019859
  H   1.30828858894469     -3.06540563528729      0.04249224007787
  H   -1.29934526792160     -3.06984340272008     -0.04721150627060
  N   -0.00326306893126      1.31676734756205      0.00430363416648
  C   -4.99809988496109      0.04301802369283     -0.21091459559259
  N   -5.08258755088018      1.40827056256133     -0.36596767422353
  C   -6.15974580771819      2.22886300032452     -0.67855826894974
  C   -7.42413502393768      1.76804490725923     -1.09685048000742
  C   -8.44124219918119      2.67985834800133     -1.39797073395026
  C   -8.23309548462203      4.05621233809924     -1.29502470186983
  C   -6.97193471216441      4.51866664974163     -0.89449750074035
  C   -5.94981982464017      3.62538387705891     -0.59042803396613
  H   -4.96745728983522      3.99576962577097     -0.28275418886327
  H   -6.78130712956363      5.59221848693893     -0.81603593189001
  H   -9.03555621223649      4.75942039722803     -1.52749668483803
  H   -9.41233585992181      2.29760098579179     -1.72417733960720
  H   -7.60962258513606      0.70453715068113     -1.22873584820524
  H   -4.17054999353228      1.85797965105653     -0.24820120966148
  C   -5.99067023049200     -0.92262966662976     -0.13891130457047
  H   -7.06802620703625     -0.84047387141099     -0.10518645922951
  H   -3.37909047996731     -2.86053359503682      0.25061485823984
  C   -5.61075802844509     -4.36824618308077      1.10139382956772
  C   -6.27776492555714     -5.59568205353768      1.22008280175008
  C   -7.41787851157081     -5.82099736928569      0.43752982522657
  H   -7.94307457015811     -6.77686801506190      0.52409782894072
  C   -5.79638894383669     -6.63263295227847      2.20789090330514
  H   -6.13271311891935     -7.64248281656575      1.92792684564797
  H   -4.69741070976386     -6.64466722940825      2.27943656000495
  H   -6.18629382956559     -6.42435425101152      3.22004709018904
  H   -4.74076140104380     -4.15749983878321      1.72701471777359
  H   -7.54939336283051     -2.88573427973474     -1.28673737245232
  H   -10.05676346573806     -4.97661164603025     -0.65771360767693
  H   -9.16812933090989     -6.14839967624496     -1.65035754845717
  H   -9.22192791618127     -4.43205174935108     -2.12964352869253
