76
Coordinates from ORCA-job ./opt_b3lyp_cdz
  N   5.12253066599956      1.85633964356649     -0.06603059650797
  C   5.00144006545584      0.49522401089929     -0.00359192351774
  C   3.72000676061013     -0.20745680019456      0.05416913034633
  C   4.02381496825650     -1.56952782061019      0.14617014831924
  N   5.37348624477956     -1.72582713203412      0.14369125613739
  C   5.99355456269034     -0.47442715700698      0.03769183069671
  H   7.06662183631101     -0.38688838656542      0.13766905398286
  C   6.05629948879981     -2.96792212451737      0.20220763040191
  C   5.54139338681689     -4.02186269863515      0.97335453751520
  C   6.21187425928717     -5.24566118619250      1.01462671535412
  C   7.40600149542200     -5.42563858971467      0.30909869748396
  C   7.92319597736228     -4.36911000739625     -0.44692558346983
  C   7.25332444926609     -3.14550702886921     -0.50846876988688
  H   7.63997731222164     -2.33304354406195     -1.12539002602125
  H   8.85247104141623     -4.49914902864799     -1.00657301754804
  H   7.93175245739834     -6.38190520220634      0.35141682181604
  H   5.80403717788187     -6.05919951445738      1.61912067155740
  H   4.63288212649159     -3.87217036092457      1.55935224086027
  H   3.36781787494671     -2.43037421384712      0.16467146682582
  C   2.40082052310543      0.38047749142429      0.02789593760960
  N   2.36735308026407      1.74619789970112      0.01868681590922
  C   1.23020639602512      2.44197323341483      0.00712888849730
  N   1.21420287122630      3.78481816494181      0.00505008148023
  C   0.00417047971780      4.35680473481951     -0.00032094057691
  N   -1.20689435954442      3.78693081213315     -0.00503855419578
  C   -1.22533667788027      2.44412293602039     -0.00568537750370
  N   -2.36372544080265      1.75030521309893     -0.01633949821343
  C   -2.39941454692223      0.38464073446765     -0.02378293668908
  C   -3.71955666783238     -0.20116041037915     -0.04991014132162
  C   -4.99978245213134      0.50351189044769      0.00889305807802
  C   -5.99350109103876     -0.46446676431551     -0.03258591095731
  N   -5.37551584648609     -1.71678879849099     -0.13992496970589
  C   -4.02559094940977     -1.56266039841188     -0.14288479147241
  H   -3.37095873021449     -2.42449439276987     -0.16323849674905
  C   -6.06038475190587     -2.95770530029813     -0.19945737729406
  C   -5.54755643942995     -4.01168618117808     -0.97193248143804
  C   -6.22007093765566     -5.23433551857044     -1.01418444965348
  C   -7.41417855269094     -5.41308827983509     -0.30831303464441
  C   -7.92929795965298     -4.35649996700122      0.44904303689680
  C   -7.25738524788700     -3.13406676449954      0.51156378789572
  H   -7.64243473688306     -2.32161442809379      1.12950232382667
  H   -8.85853912250080     -4.48559182826330      1.00896596292662
  H   -7.94152061352928     -6.36844419452813     -0.35139525127079
  H   -5.81383975048367     -6.04790891169257     -1.61971161595311
  H   -4.63906634959030     -3.86289336778227     -1.55819217231803
  H   -7.06648445871909     -0.37505620423358     -0.13186960111857
  N   -5.11861241036461      1.86479366519258      0.07244229648263
  C   -6.27551204598686      2.62477811870294      0.21314522462216
  C   -7.56978392104567      2.22585273825987      0.53288418516131
  N   -8.35099153075689      3.36778231468383      0.57491924480011
  C   -7.59195084905869      4.47079949522628      0.28899621942569
  C   -6.29734275171951      4.04972029103929      0.05745682111565
  H   -5.44700739203909      4.67887177503949     -0.19641575836711
  H   -8.02598821479528      5.46665061865189      0.26448569592167
  H   -9.34108496800107      3.37685344471012      0.77113573132131
  H   -7.98640501358824      1.25796577503492      0.78210630137222
  H   -4.22063378176768      2.34839451480542      0.03088161794045
  C   -1.17792427434462     -0.35297859951457     -0.00950013087324
  C   0.00072862963639      0.41958658200803      0.00202292241651
  C   1.17804202204140     -0.35501397064684      0.01516172859136
  C   0.69531452892223     -1.71552814589676      0.01081916571064
  C   -0.69756866329587     -1.71433072404624     -0.00181444879442
  H   -1.30437525150781     -2.61643909311378     -0.00051280988281
  H   1.30053713214892     -2.61869851353447      0.01239387863439
  N   0.00185811196774      1.77084669941418      0.00098695320302
  H   0.00510731591650      5.45273398927395     -0.00091907339877
  C   6.28073159348900      2.61458347271202     -0.20536473576203
  C   7.57481598350295      2.21381574048931     -0.52356939392736
  N   8.35774115381523      3.35461139261243     -0.56449399287409
  C   7.59994904978068      4.45870371394539     -0.27940020018575
  C   6.30445090099394      4.03948157508097     -0.04949908267184
  H   5.45470919950478      4.66982918826897      0.20339102171805
  H   8.03540084727217      5.45392168534267     -0.25426193045879
  H   9.34806374470499      3.36227381846515     -0.75960765771901
  H   7.99038156645773      1.24537046984651     -0.77235836820556
  H   4.22515195506267      2.34121788555966     -0.02584260820595
