27
Coordinates from ORCA-job ./opt_b3lyp_cdz
  C   4.18913102680273      1.00075842800031     -0.00021949539587
  C   3.34671791337886     -0.26027495887116     -0.00026491916406
  O   3.86430663574801     -1.36334289879234     -0.00026310412505
  C   1.84241396989843     -0.12780298715679     -0.00015515281357
  C   1.08145581159250     -1.29294375394280     -0.00012784485083
  C   -0.32743496364988     -1.24967364190851     -0.00003241079959
  C   -1.11010807697825     -2.42835028378207     -0.00000109247821
  C   -2.49446423725276     -2.36203935609406      0.00008910127811
  C   -3.13337537889144     -1.12936494778434      0.00015152605362
  C   -2.38983514592468      0.07188064663391      0.00012618219087
  C   -3.01868797199263      1.34217627523875      0.00019095482768
  C   -2.26910530991334      2.50581228261994      0.00016533768107
  C   -0.88064094517069      2.44130134466830      0.00007474621999
  C   -0.21554026842854      1.19644884177995      0.00000736943497
  C   1.19763220820582      1.10617013653278     -0.00008617555966
  H   1.74462360436080      2.04682754544508     -0.00010333041106
  N   -0.97925266718755      0.00690771528963      0.00003390407706
  H   -0.26471772892338      3.33975916936953      0.00005203622175
  H   -2.76942997148146      3.47740687406475      0.00021636820483
  H   -4.10789653749342      1.36010415183705      0.00026166450925
  H   -4.21948471589958     -1.04578273490049      0.00022242527017
  H   -3.08451963997852     -3.28188833148920      0.00011115956976
  H   -0.57884060493121     -3.37912989553617     -0.00005222081676
  H   1.57502606250872     -2.26278569059746     -0.00018243244826
  H   3.96900223770829      1.61727343495737     -0.88735428798456
  H   5.24999950585577      0.72073017816460     -0.00024302764050
  H   3.96902071704885      1.61719973724737      0.88697176695485
