62
Coordinates from ORCA-job ./opt_b3lyp_cdz
  C   5.14140754841613      3.10054443147804      0.76589152937455
  N   6.22626812262164      2.42963167339090      0.07291571252068
  C   6.22515730195578      1.10060097858245     -0.30497924885218
  C   7.45666385494051      0.80748932978402     -0.88012394652450
  C   8.22446548751555      2.01194389549142     -0.84903998964782
  C   7.44821777718724      2.98940687202833     -0.26540042915393
  H   7.64668642595213      4.03852083416681     -0.06360621452023
  H   9.23548223628335      2.14439557215524     -1.22782180890676
  H   7.74859532708458     -0.14201185861957     -1.31781350184046
  N   5.08599807180875      0.34450298718814     -0.06169211748877
  C   4.99031440881037     -1.02634916398740     -0.04403411516536
  C   3.72031276787943     -1.74627312799273      0.00032522086917
  C   4.04512386053843     -3.11256619953023      0.04450651012760
  N   5.38954690442669     -3.22404652142378      0.02340145748727
  C   6.00033256259690     -1.97828523301208     -0.03911013006510
  H   7.07781538554384     -1.87419654402004     -0.03884817939910
  H   5.89172067686723     -4.10107864147503      0.04632404830436
  H   3.40736340906159     -3.98662925775323      0.10122339042130
  C   2.40057626302124     -1.16617305912685     -0.00061444718976
  N   2.36230995753369      0.20254513888076      0.02168828340495
  C   1.22694295916672      0.89696054452886      0.02947109942576
  N   0.00007121019257      0.22606849315770      0.02645425813347
  C   0.00002280155203     -1.12623323557108     -0.00030454544582
  C   1.17755393587890     -1.89981680996681     -0.02495635405263
  C   0.69635745186818     -3.26000574531322     -0.07838756103585
  C   -0.69646708938128     -3.25994441651654     -0.07857474889230
  C   -1.17756234746252     -1.89970810101309     -0.02526976330940
  C   -2.40068458215973     -1.16597732828763     -0.00127819167514
  N   -2.36219347000827      0.20273308323227      0.02112681720350
  C   -1.22675480445223      0.89704499275845      0.02919780090819
  N   -1.21003576439430      2.24198282047105      0.04079946174231
  C   0.00016183712504      2.81357950148247      0.04601734894903
  N   1.21031959561374      2.24190017106087      0.04107251106346
  H   0.00019661176001      3.90933255469153      0.05456062644156
  C   -3.72077882119676     -1.74563865084026     -0.00090024944991
  C   -4.04598338342412     -3.11183970887834      0.04301863773001
  N   -5.39044189011326     -3.22291868808318      0.02153355614988
  C   -6.00082964275879     -1.97695933353662     -0.04098056278276
  C   -4.99053914500678     -1.02530820317921     -0.04549101070960
  N   -5.08580067390703      0.34557747973139     -0.06301226486172
  C   -6.22467511765196      1.10202260686862     -0.30659470725609
  N   -6.22567055303856      2.43091706661337      0.07178149138021
  C   -7.44731417462568      2.99109771639363     -0.26695452327421
  C   -8.22349567737535      2.01401800740252     -0.85133417178428
  C   -7.45595355214890      0.80939993432468     -0.88247009634532
  H   -7.74788101989268     -0.13989342737087     -1.32061851525855
  H   -9.23429424620778      2.14683664082290     -1.23057003636942
  H   -7.64563745957150      4.04018917518183     -0.06490034119722
  C   -5.14096726260932      3.10131262502255      0.76550923769225
  H   -4.21262637563021      3.11795380981267      0.16964253733443
  H   -5.44126369901477      4.13781514173386      0.96880559729787
  H   -4.92002486381854      2.60255129727038      1.72401821860540
  H   -4.16629410409570      0.79579233605530     -0.06691903923513
  H   -7.07828191591480     -1.87253220825166     -0.04100991770311
  H   -5.89289702774068     -4.09980036683085      0.04415258267124
  H   -3.40846577770453     -3.98608221621765      0.09974483838997
  H   -1.30482567476409     -4.15986358410548     -0.12665339647502
  H   1.30461622113477     -4.15999316344705     -0.12633675557874
  H   4.16663710257112      0.79500739328940     -0.06581738867421
  H   4.91994000433672      2.60224881081025      1.72452203094693
  H   4.21332782070841      3.11712744405224      0.16961851855002
  H   5.44183104931321      4.13707152533439      0.96887392759623
