66
Coordinates from ORCA-job ./opt_b3lyp_cdz
  C   -4.08392929776260     -4.16561676944884      0.63645124206214
  C   -4.60685274267291     -2.82231847307111      0.18254850739511
  O   -4.88573019435080     -2.60065549698032     -0.98686462031134
  N   -4.75459322932139     -1.84342853422805      1.17218579236845
  C   -4.53058827070301     -2.01649067833678      2.55644387143464
  C   -4.69745608609659     -0.80517671649509      3.16329348376960
  C   -5.02990251684613      0.16751111846070      2.15857063336778
  C   -5.05890589151641     -0.48530329753036      0.94600317175796
  N   -5.33675445285672     -0.01859857315049     -0.33088892892266
  C   -4.96000044124509      1.30207561111351     -0.67478908420825
  C   -3.63866369634349      1.90400055221617     -0.72799528439303
  C   -3.82812096329358      3.21883669160988     -1.15378548990312
  N   -5.16188390303904      3.41983710198611     -1.34841641123004
  C   -5.86417937629583      2.27077157191496     -1.05249088617763
  H   -6.94578813492936      2.21628764869419     -1.12925824695925
  H   -5.57200005138605      4.28116649823544     -1.68250688823722
  H   -3.10618410598631      3.99622841586437     -1.38011839116112
  C   -2.35112353722009      1.28114587558092     -0.44381205402317
  N   -2.33680784503471     -0.07502494773515     -0.41746691783166
  C   -1.21827553569522     -0.76762534241785     -0.20034406165684
  N   -1.19716241885691     -2.11188956235007     -0.17366495501578
  C   0.00162674565520     -2.68010747308526      0.00005287903863
  N   1.20007217440147     -2.11116398943239      0.17377150972226
  C   1.22037755615174     -0.76688756045824      0.20045463363951
  N   2.33849762393861     -0.07361141972051      0.41755667357162
  C   2.35199038910512      1.28256595769412      0.44388174898826
  C   3.63912172750357      1.90626031030548      0.72805402005361
  C   4.96090826932557      1.30530006242786      0.67476039741890
  N   5.33867464074543     -0.01505525143692      0.33074855005519
  C   5.06083327641191     -0.48208405443024     -0.94602404702316
  N   4.75754188048474     -1.84047360031053     -1.17201173972310
  C   4.53322009369409     -2.01381061680400     -2.55618286925202
  C   4.69896451341861     -0.80241734769170     -3.16318003934652
  C   5.03096069745898      0.17061064260778     -2.15863669637146
  H   5.22159238919571      1.22986355564476     -2.30545618661130
  H   4.60618467286185     -0.61678710788790     -4.23148651551711
  H   4.30742531664362     -2.99001199236698     -2.96703148980006
  C   4.61087732399456     -2.81939706370151     -0.18225588853771
  O   4.88979244993135     -2.59737053031077      0.98708190921244
  C   4.08864012718560     -4.16307063747664     -0.63583302336704
  H   4.05192320487452     -4.81937351298840      0.24164105867695
  H   3.07646022030543     -4.04572935665538     -1.05113511610606
  H   4.73618583003253     -4.61156748391884     -1.40539273528018
  H   5.13453208098523     -0.73049655212680      1.03192432217500
  C   5.86439176833356      2.27467138871741      1.05240692430144
  N   5.16125844286562      3.42316416807638      1.34856172354687
  C   3.82763176306218      3.22116604017845      1.15405557960615
  H   3.10512704913114      3.99798364050165      1.38055390828471
  H   5.57075837486848      4.28475928656111      1.68271676020235
  H   6.94605127464444      2.22100946558950      1.12904041706131
  C   1.15834912344502      2.02117709163422      0.21332533561211
  C   0.00043899522947      1.24680979899222      0.00006186515951
  C   -1.15793831909076      2.02048384957619     -0.21320472998682
  C   -0.68568150894816      3.38353574439115     -0.12049664456748
  C   0.68527111728778      3.38394537478124      0.12064750940050
  H   1.29251989068196      4.28205748355951      0.20664827440487
  H   -1.29346521583250      4.28128731627414     -0.20647657766360
  N   0.00084783689661     -0.09900345801172      0.00005970295904
  H   0.00195763927391     -3.77623739645522      0.00005290352327
  H   -5.13165509864077     -0.73387403639247     -1.03195331523387
  H   -5.22137274372633      1.22663326251532      2.30524260040036
  H   -4.60512776312922     -0.61938332812756      4.23161076724902
  H   -4.30414550155345     -2.99248110453008      2.96743812092423
  H   -4.73145705173599     -4.61445048380976      1.40583219763431
  H   -3.07197431311255     -4.04757394115317      1.05210387638199
  H   -4.04647940051335     -4.82198954517967     -0.24093933403048
