74
Coordinates from ORCA-job ./opt_b3lyp_cdz
  C   -7.59371560714919     -4.18104611565272     -0.12367995469404
  C   -6.08584012916409     -4.21700111096845     -0.03936925157890
  O   -5.44000633112668     -5.23930912144008      0.07288814491478
  N   -5.43319573721648     -2.96294463697068     -0.09796793352312
  C   -6.01497477824775     -1.68555952634687     -0.22168842163318
  C   -4.99420443088397     -0.75272396079390     -0.22445617484361
  C   -3.73285957512607     -1.50069873350306     -0.11313979638317
  C   -4.07006139685997     -2.84255528340840     -0.03750947316885
  H   -3.46675071509996     -3.73493767375374      0.07096735607078
  C   -2.39019066812685     -0.94992592802995     -0.06974367369239
  N   -2.31813176967266      0.40872511729030     -0.01160085041949
  C   -1.15726323167038      1.06883144167223      0.04863177421564
  N   -1.09861324781748      2.40262090827639      0.09941571421658
  C   0.12478394820628      2.95214455643226      0.15963093749765
  C   0.17110655987306      4.45561620465652      0.22165012975462
  N   1.32362136254959      5.00842129309520      0.63296282789091
  C   1.34999042844266      6.34314909913395      0.68737149302154
  C   0.25385415298078      7.13097694810463      0.33155380938245
  C   -0.88805342252549      6.44408211131924     -0.08436792729125
  N   -0.94419857313128      5.11031008781179     -0.13942663086728
  H   -1.79445953970564      6.98132665450905     -0.38588782920120
  H   0.28763709377197      8.22104026375941      0.37617990855651
  H   2.28689649371503      6.79699851881783      1.02992646207311
  N   1.31210674705355      2.32566569108896      0.17020331769585
  C   1.28849291428091      0.99091131658079      0.11660666105093
  N   0.04464204048487      0.35214451100424      0.06196020026207
  C   0.00385246401739     -0.99256350920571     -0.00336477517809
  C   -1.19687206645577     -1.72781190770253     -0.08218068433789
  C   -0.75637218584606     -3.09993642089317     -0.16692166972387
  C   0.63562368120002     -3.14432428653864     -0.13087657844091
  C   1.15786024747737     -1.80283014179888     -0.02159008360101
  C   2.39605525194341     -1.10203512303972      0.05337018270356
  N   2.40663808233848      0.25844143228626      0.11336147148540
  C   3.70206048476431     -1.73579414417206      0.07606675795877
  C   3.95065818343073     -3.09749055403188      0.14199914221402
  N   5.30480123848540     -3.30239350789334      0.15953101642259
  C   5.97091724433324     -2.06224943595360      0.09859387928550
  C   5.01182928885046     -1.06701276336887      0.05568093079659
  N   5.16405492799184      0.29030205666414      0.00659152581937
  C   6.34457945632523      1.02349537176582     -0.07559343084941
  C   7.63287534095044      0.60185482306366     -0.38906758896462
  N   8.44591252208000      1.72148562341062     -0.36510584995970
  C   7.71187604191198      2.83195025256839     -0.04380055458588
  C   6.40167886035954      2.43859442899541      0.14457742951900
  H   5.56335256624550      3.07896682670271      0.41064807232730
  H   8.17321132272865      3.81265010210995      0.03409802463177
  H   9.43943837420482      1.71142130573696     -0.54337346560199
  H   8.02604659469824     -0.36427402408101     -0.68056734416733
  H   4.28109554378211      0.79854440410411      0.06632439739752
  H   7.04743529608562     -2.00232631244708      0.15541598121448
  C   5.87397878240755     -4.59604910921226      0.22798509791310
  O   5.16060613466412     -5.57757821171889      0.27799952754243
  C   7.38347052330145     -4.65351040384726      0.23504830971920
  H   7.68654530637766     -5.70625504127004      0.27731559391980
  H   7.79131310539287     -4.11637388284328      1.10654140364822
  H   7.79800071531621     -4.18376715166400     -0.67123310717069
  H   3.28833737235357     -3.95241191210676      0.19169112063686
  H   1.21610198945184     -4.06129437189335     -0.19316485949489
  H   -1.39067846221959     -3.97766758348495     -0.26205100929307
  N   -5.05659486434856      0.60993439486092     -0.30941871624247
  C   -6.17901814148580      1.41328368008629     -0.48935105525310
  C   -7.47192206176322      1.06381408018857     -0.86627293419867
  N   -8.20854517627456      2.23368991570604     -0.93064813587869
  C   -7.42237190201471      3.30598742307250     -0.60332744598456
  C   -6.15462116837799      2.83652606823406     -0.32193398441038
  H   -5.29187189583877      3.43147704034388     -0.02981147865491
  H   -7.82096202633057      4.31670491294091     -0.58787004504644
  H   -9.18826671064388      2.28081069380149     -1.16914648303559
  H   -7.91128107737209      0.11475550084854     -1.14745744746951
  H   -4.14913853401353      1.06365275774535     -0.19972690042676
  H   -7.08704451412257     -1.55835799856546     -0.23188942692287
  H   -8.01846895466658     -3.60292919557007      0.71284877010114
  H   -7.92287941077334     -3.70423678159126     -1.06074116177689
  H   -7.96435836892516     -5.21201808856504     -0.08329012533870
