64
Coordinates from ORCA-job ./opt_b3lyp_cdz
  N   5.10886322489409      0.28450866343669     -0.24393109429288
  C   4.99520333929824      1.64236537984898     -0.10163149107638
  C   5.99315203581885      2.60839551881163     -0.02940473801935
  N   5.36779017788225      3.83934332504032      0.13147671627868
  C   4.02527477584054      3.70625336729774      0.15297580946675
  C   3.71756110282220      2.34455929335189      0.00909933547279
  C   2.39909300954489      1.75700346582712     -0.00817782553883
  N   2.36434134450872      0.39230771795404     -0.02491744104620
  C   1.22497568893501     -0.30340880695989     -0.01912168104733
  N   1.20916202346989     -1.64141400154314     -0.02458047366925
  C   0.00316064895175     -2.22934827050698      0.00087729289877
  N   -1.20425878581979     -1.64432983208394      0.02614232427273
  C   -1.22331756997723     -0.30637201585418      0.02025233608949
  N   -2.36436807252852      0.38657504192802      0.02582470383108
  C   -2.40242269177952      1.75117235834194      0.00867030564923
  C   -3.72231817737587      2.33550350883667     -0.00873412547208
  C   -4.99821794359566      1.63016488532027      0.10197378074139
  N   -5.10849486921222      0.27201853354619      0.24419604596676
  C   -6.25453274439736     -0.48551671638961      0.45710682620284
  C   -7.54347346056663     -0.07986066978662      0.79018086174447
  N   -8.31373421681461     -1.22414921930028      0.91410252301598
  C   -7.55215648201720     -2.33502682159736      0.66714189991069
  C   -6.26796870610554     -1.91732903764395      0.37850939366017
  H   -5.41715509230835     -2.55158398190516      0.13856519953582
  H   -7.97770980644435     -3.33405248159310      0.70828979414631
  H   -9.29759801786319     -1.23035038295914      1.13903942815108
  H   -7.96186227153103      0.89631512985230      1.00199467701633
  H   -4.21081458988511     -0.21071061956077      0.18412654877377
  C   -5.99854437396920      2.59373796746061      0.02982793606144
  N   -5.37622125748171      3.82620449483496     -0.13123020903531
  C   -4.03338210969864      3.69641338481289     -0.15280976962035
  H   -3.38598482589886      4.55416273971396     -0.29092780463829
  H   -5.86885222970553      4.70331330086352     -0.22621467357601
  H   -7.07691994619021      2.51028151623710      0.02112168214306
  C   -1.18099518207401      2.49204632972225      0.00541216673833
  C   -0.00162437103033      1.72067979908978      0.00029289349958
  C   1.17586871446030      2.49490879429461     -0.00501484541671
  C   0.69317442013513      3.85414790235727     -0.00521784184953
  C   -0.70160833402045      3.85245288154746      0.00538850723378
  H   -1.31002840787094      4.75361517968792      0.02180815292394
  H   1.29939034298503      4.75679114879193     -0.02176805196803
  N   0.00001030801281      0.37073203410317      0.00046471162872
  C   0.00497535134089     -3.73549105185730      0.00114034256830
  N   1.14223292260484     -4.34016444984978     -0.37979855592348
  C   1.12881613676868     -5.67596257468056     -0.37926371683243
  C   0.00819780962491     -6.41614044471313      0.00161740525587
  C   -1.11419772307540     -5.67852456340490      0.38223187902967
  N   -1.13082570504588     -4.34276228143715      0.38229196825456
  H   -2.03784014931693     -6.17568898973651      0.70031932458714
  H   0.00951105613635     -7.50770407122699      0.00181302055914
  H   2.05365084666097     -6.17101798494270     -0.69717613202652
  H   3.37576720639568      4.56243018907799      0.29094678352069
  H   5.85825629738575      4.71767204329125      0.22639241141596
  H   7.07173096998903      2.52759763447479     -0.02064328115009
  C   6.25679880013906     -0.47013848005704     -0.45687122250679
  C   7.54475469036235     -0.06121684776852     -0.78976077750585
  N   8.31787375067223     -1.20356213410268     -0.91381228252092
  C   7.55904287218575     -2.31637513970632     -0.66710902763472
  C   6.27379137759996     -1.90192703310488     -0.37852811440042
  H   5.42453675367494     -2.53834116974385     -0.13878689837027
  H   7.98708477038989     -3.31433134995116     -0.70839638918925
  H   9.30176690477703     -1.20727384902157     -1.13867521437666
  H   7.96073258141372      0.91603433672868     -1.00136849495300
  H   4.21236937115068     -0.20045049135707     -0.18406027449855
