84
Coordinates from ORCA-job ./opt_b3lyp_cdz
  N   -5.13055352025098     -1.21462909291152      0.01773377169529
  C   -5.00111649443718      0.14710162854805     -0.01616468515646
  C   -5.98927696351671      1.12114636556075     -0.04527660843518
  N   -5.36400854015950      2.37151711098709     -0.12587604755862
  C   -4.01521088908417      2.21003752526368     -0.12461457160945
  C   -3.71671781873024      0.84507038909502     -0.05529019480242
  C   -2.39870974827311      0.25425125248128     -0.03173466591648
  N   -2.36790240986478     -1.11311483420361     -0.02046324966969
  C   -1.23058109171686     -1.80848736841472     -0.00434702861827
  N   -1.21642619128748     -3.14641230896340      0.00194761813311
  C   -0.00810979708383     -3.72752504768407      0.01195478836846
  N   1.20247884303899     -3.15109332732518      0.01700642456765
  C   1.22189711891898     -1.81322759119657      0.01311183230992
  N   2.36197937606849     -1.12221889181601      0.02257074358588
  C   2.39790656315976      0.24504031291089      0.02154858157938
  C   3.71805349080584      0.83116919912675      0.04425243710367
  C   4.99978917942802      0.12897347112238     -0.00321958161302
  N   5.12432905256114     -1.23302969293269     -0.04581360008871
  C   6.28801118605634     -1.98617235004131     -0.17154371980423
  C   7.57074351708174     -1.58459868640998     -0.53204798523986
  N   8.36746053327117     -2.71613935617994     -0.53780587016019
  C   7.62991930074641     -3.81565318880922     -0.18962388134195
  C   6.33371526537714     -3.40207379177151      0.04724415457713
  H   5.49953060667425     -4.03136869309132      0.34915365515144
  H   8.07891393805048     -4.80319813934815     -0.12789983955660
  H   9.35419662742434     -2.72028127416799     -0.75063960280971
  H   7.96711388700965     -0.62287219360504     -0.83321188038271
  H   4.22893804231231     -1.72030859493446     -0.00028866681576
  C   5.99143554034844      1.09936916568027      0.02708979156360
  N   5.37086996785168      2.35139253658690      0.11838380863584
  C   4.02150091927055      2.19455319956483      0.12133773281099
  H   3.36535927461933      3.05534162519704      0.12917536418930
  C   6.05307976379213      3.59457199183454      0.16373942557360
  C   5.53801980640032      4.65569212125951      0.92476425584699
  C   6.20771352897163      5.88030278247174      0.95324511747852
  C   7.40110193058164      6.05393961419965      0.24491486556221
  C   7.91843222853429      4.99029456646052     -0.50096369132936
  C   7.24933474105144      3.76568497139990     -0.54968013381510
  H   7.63605855313837      2.94730690279965     -1.15867139584964
  H   8.84714874409993      5.11538627198714     -1.06263578284226
  H   7.92624777016962      7.01092066268566      0.27721956909457
  H   5.79987403835764      6.69957108571398      1.54992267764078
  H   4.63008771369174      4.51117625666036      1.51295322903783
  H   7.06452661682257      1.01224952096659      0.12839879189609
  C   1.17843998842344      0.98424202229124      0.00207680877252
  C   -0.00045900615470      0.21486623449990     -0.00475701676664
  C   -1.17623899223762      0.98882843609976     -0.02282138364183
  C   -0.69134352086465      2.35174194099246     -0.02856721120159
  C   0.69922299466527      2.34902250494369     -0.01533835697210
  H   1.30726423873919      3.25017461827389     -0.02343880157535
  H   -1.29545361096049      3.25546210725478     -0.04052063467300
  N   -0.00304513828032     -1.13757244845392      0.00263635419375
  N   -0.01087572497199     -5.12388640498356      0.01779697087593
  C   -1.14784472795031     -5.93016866918477      0.02887474124702
  C   -0.73445489778623     -7.23753781042410      0.03178937744341
  C   0.70430068187269     -7.24044021256142      0.02165850560470
  C   1.12287600232314     -5.93474313803664      0.01360729773270
  H   2.10754916886666     -5.48256176429449      0.00336389179150
  H   1.35450076540807     -8.11269888971358      0.02007708800141
  H   -1.38811532920832     -8.10716179018899      0.04072725505635
  H   -2.13072427186880     -5.47402248135615      0.03544645332125
  H   -3.35640489911268      3.06880598730671     -0.11832481546845
  C   -6.04155369889845      3.61748322498604     -0.16368748395238
  C   -5.51967915284370      4.68270294141185     -0.91426854082513
  C   -6.18471095768194      5.90999126465983     -0.93549261272483
  C   -7.38014594869913      6.08238883098882     -0.23031009391731
  C   -7.90424283838915      5.01476560047095      0.50508837352185
  C   -7.23987261072830      3.78731504632692      0.54656166150796
  H   -7.63189106379449      2.96554045602095      1.14753997122696
  H   -8.83461676361558      5.13885107411108      1.06423462009726
  H   -7.90163609546996      7.04154135186319     -0.25695153546130
  H   -5.77158445455302      6.73248527764523     -1.52403890197810
  H   -4.61002009523273      4.53938801606946     -1.50008001185431
  H   -7.06214939932519      1.03854899416983     -0.15231551232122
  C   -6.29726335578970     -1.96483321678897      0.13262317761361
  C   -7.58185649557282     -1.56097835878517      0.48383980622481
  N   -8.38152341665302     -2.69045020249029      0.47972056016867
  C   -7.64397554447171     -3.79089925543711      0.13451469666286
  C   -6.34483647314644     -3.38001038857211     -0.09055593089246
  H   -5.50985426058561     -4.01051857375496     -0.38769591964003
  H   -8.09499076765395     -4.77709367049233      0.06627189170101
  H   -9.36978528050843     -2.69275250534326      0.68537241674507
  H   -7.97842099275954     -0.59921344933933      0.78453730602906
  H   -4.23602997771535     -1.70437963083058     -0.01799359886281
