78
Coordinates from ORCA-job ./opt_b3lyp_cdz
  N   0.01241027872976      5.60067229216109     -0.04710223660642
  C   0.00965091284740      4.24246372319987      0.00650511284201
  N   1.22504493251534      3.65243843223406      0.01603550615826
  C   1.23112490979510      2.31844182254970      0.04174591378730
  N   2.36868252297570      1.61685268149012      0.05325150364153
  C   2.39707038538060      0.25024026140291      0.08004225731670
  C   3.71743150797997     -0.33964435422378      0.09088011708590
  C   4.02940082488412     -1.70304390543655      0.11131668933202
  N   5.38137162707272     -1.84924157646529      0.12066471044299
  C   5.99223376746119     -0.59024641242141      0.11610868964358
  C   4.99329102162897      0.36795143812366      0.08345796336466
  N   5.10341725790587      1.73646603190624      0.01871908951633
  C   6.26790946226645      2.48056430240439      0.14356766480398
  N   6.28444882838283      3.77465442074365     -0.32970970059405
  C   7.52531526831386      4.34565897808377     -0.10272330178818
  C   8.30773654590676      3.39849696580569      0.52006659993430
  C   7.52087447796267      2.21380279208350      0.68221616469396
  H   7.81925952962004      1.29805196532698      1.18235671102634
  H   9.33760713731401      3.53654853594606      0.84202746244716
  H   7.73255003090349      5.36989282971983     -0.39858314359705
  H   5.52029669023345      4.20515018206728     -0.83283955595624
  H   4.19068380384122      2.20237295540924      0.03635824944711
  H   7.06660510502997     -0.49141198171940      0.03387612707935
  C   6.07299633165847     -3.08806390598619      0.16883696861860
  C   7.27474220216229     -3.19461739403154      0.88517949837019
  C   7.95196082995423     -4.41500587681156      0.92752309931825
  C   7.43705509711078     -5.53711389530156      0.27101778241553
  C   6.23803713905848     -5.42739398837625     -0.44045395994329
  C   5.56028724536223     -4.20845554265400     -0.50325437248864
  H   4.64757055566204     -4.11624106384957     -1.09456915240638
  H   5.83197015593270     -6.29352772702696     -0.96814649221762
  H   7.96867747158883     -6.49025861588497      0.31017432508170
  H   8.88545144057144     -4.48927044220234      1.49016835104655
  H   7.66157734795167     -2.32901368033250      1.42477577734346
  H   3.37973392947560     -2.56598334626501      0.18380921814985
  C   1.17571167780469     -0.48295223163213      0.09382213122723
  C   0.00142055323827      0.29165825428416      0.08344315949606
  C   -1.17609881430947     -0.47795580457983      0.09842242589551
  C   -0.69748365795981     -1.84519499614376      0.11664428169613
  C   0.69136588693239     -1.84814738056542      0.11377658103148
  H   1.29745388693406     -2.75067729323713      0.12279673685758
  H   -1.30738231556247     -2.74512832167648      0.12822188044406
  C   -2.39438034202595      0.26041637432568      0.08933337757073
  C   -3.71718897842703     -0.32383006868980      0.10537131579089
  C   -4.03491426969701     -1.68588757518776      0.12662003075617
  N   -5.38744825364675     -1.82628262146744      0.14125553141835
  C   -5.99293273582760     -0.56467997684066      0.13955113624122
  C   -4.99001988681145      0.38923617508329      0.10329367053475
  N   -5.09442917628815      1.75823121812788      0.03966021612420
  C   -6.25514008683454      2.50748688458097      0.16841791619176
  N   -6.26720775582478      3.80197228104700     -0.30391622681432
  C   -7.50482068557268      4.37841910447542     -0.07289980542739
  C   -8.28964197994324      3.43441047980520      0.55164277825327
  C   -7.50771010886588      2.24601841776646      0.71058749509322
  H   -7.80876764734952      1.33132704915564      1.21105451866700
  H   -9.31790151279218      3.57692236266789      0.87679242619517
  H   -7.70830836012606      5.40377012199538     -0.36748601961883
  H   -5.50262001606380      4.22934914673978     -0.80904666840972
  H   -4.17960192892141      2.22013751058997      0.05314077967081
  H   -7.06718569033960     -0.46126973401410      0.06158032888102
  C   -6.08420574117156     -3.06214036476421      0.19168310574696
  C   -5.57916805227801     -4.18437392506701     -0.48313092124283
  C   -6.26192154784049     -5.40040357668997     -0.41810968853895
  C   -7.45840597064908     -5.50531223413487      0.29833368120884
  C   -7.96569618501637     -4.38133910786275      0.95757504493909
  C   -7.28338613833753     -3.16387057297682      0.91300898894795
  H   -7.66419713974122     -2.29687805878502      1.45466016859576
  H   -8.89712666892654     -4.45186712664538      1.52410169747985
  H   -7.99397815592732     -6.45617029551729      0.33923370511191
  H   -5.86182970020967     -6.26800609024567     -0.94794975721937
  H   -4.66855451136853     -4.09579096482505     -1.07823389155393
  H   -3.38866698422639     -2.55163365782567      0.19613221319285
  N   -2.36029651362190      1.62689512553472      0.06247949328790
  C   -1.21982756327374      2.32364848289640      0.04652534410438
  N   0.00424118386078      1.64607053719739      0.05773795694312
  N   -1.20819247486530      3.65759811367428      0.02074980747144
  H   0.88708643254497      6.07519996675921      0.13586098229115
  H   -0.85954775840042      6.07889010546485      0.13920160514479
