80
Coordinates from ORCA-job ./opt_b3lyp_cdz
  O   3.85751008784796      2.90585047991471     -1.25895988612755
  C   4.30216516736726      3.99979937575507     -0.92698138344760
  C   3.76948455626365      5.24983567789369     -1.56292432125216
  C   3.45375272872464      5.18704392533002     -2.93058966329538
  C   2.88103127977534      6.28531471976273     -3.57185033363866
  C   2.58428678324916      7.44461841745777     -2.84598315616446
  C   2.86275470201258      7.50043397817163     -1.47696135507651
  C   3.45921253329115      6.41140140907025     -0.83558646070252
  H   3.66303071133223      6.45775090988753      0.23537731210333
  H   2.61270093448828      8.39536570253656     -0.90239392268955
  H   2.12723255325754      8.30180027175230     -3.34635056892693
  H   2.65574282878080      6.23405664255155     -4.63954419099230
  H   3.66106851749015      4.26562269893171     -3.47707252049327
  N   5.30029149760901      4.11573946790535      0.04668539893405
  C   6.10285735113735      5.25724125056551      0.29716869057638
  C   6.99230638353116      4.93724689232724      1.27760779207732
  C   6.77401255408949      3.57256091045660      1.67188022049132
  C   5.74582278798566      3.07225892223228      0.89801930494743
  N   5.10313074996890      1.85197301458885      0.88750994419766
  C   5.60547321777922      0.67381911596730      1.44845573774376
  C   6.89555799439184      0.42199028597807      1.88916344917795
  N   6.95373233349367     -0.91007581985063      2.26381351760852
  C   5.75705716385513     -1.51186200755289      2.06828524873545
  C   4.85858706853844     -0.56126957785005      1.57934088260518
  C   3.46629349726043     -0.90696856425941      1.29799550854020
  N   3.26332024944275     -2.23594535043239      1.08857766509940
  C   2.05659060984099     -2.74138898249807      0.83646824162256
  N   0.93890528302538     -1.89254373652603      0.75579602959679
  C   1.11555566351274     -0.57563376553081      0.98002234262226
  C   0.05844910556458      0.35139390505995      1.01592891034324
  C   0.69810235432043      1.59181091758371      1.39630460200454
  C   2.06352780759130      1.38417281737385      1.55502185011081
  C   2.37217472711265     -0.00164329674318      1.28194289022820
  H   2.78167000250157      2.14139350903150      1.85481414484600
  H   0.20443044464734      2.54546745653749      1.56751093363663
  C   -1.23155716176001     -0.17947309601253      0.72006634558519
  N   -1.38695239882800     -1.51163214690098      0.49314076717686
  C   -0.36081015902345     -2.36840617458178      0.52313870523386
  N   -0.51979443135351     -3.68668583009131      0.34225134858862
  C   0.59168370102177     -4.42908082904445      0.41384462738186
  N   1.85425140965574     -4.05632087853213      0.64952659939522
  H   0.44338897486826     -5.50437070296833      0.26090692119437
  C   -2.43840287838434      0.61825852162514      0.64453375781578
  C   -3.81073633850006      0.14742816578718      0.52168451264479
  C   -4.62562337115655      1.27132712287649      0.51299826106326
  N   -3.80213608622886      2.38324615159483      0.59753030905014
  C   -2.50317972082659      2.01758894005775      0.67734107299310
  H   -1.71011272033979      2.75460715836039      0.71881475503689
  H   -4.13232637207664      3.33824316551979      0.59468476802387
  H   -5.69957481774245      1.37111450788193      0.41900999560377
  N   -4.18159456565286     -1.18065843796608      0.40799490555739
  C   -5.46621462516457     -1.65597965172154      0.56439850661904
  C   -6.56529879048463     -1.12257641107393      1.21222285637619
  C   -7.65998223152813     -2.03359776012548      1.04264621153089
  C   -7.23178520131041     -3.08583916841470      0.28523960262775
  N   -5.87702793516644     -2.86663644950714     -0.04056932156528
  C   -5.03905764578351     -3.74088396651183     -0.75669244388528
  O   -3.82697017273126     -3.68960624347265     -0.63350268862680
  C   -5.67569196718613     -4.73170809615616     -1.68697130330999
  C   -6.81037494823843     -4.44799695091922     -2.46561602736579
  C   -7.28253785160455     -5.38908170502209     -3.38470256407503
  C   -6.63633332113263     -6.62101597580958     -3.52504182076357
  C   -5.49929034494458     -6.90409121333426     -2.75916568069281
  C   -5.01201766986881     -5.95874781295553     -1.85704749180079
  H   -4.10906010817294     -6.14864281673081     -1.27454620299478
  H   -4.98601823167297     -7.86176455140952     -2.87340306394248
  H   -7.01350175908342     -7.35807881286658     -4.23833859114315
  H   -8.15752452619256     -5.15621774361008     -3.99620408296414
  H   -7.31255513844539     -3.48423149190867     -2.36899504031005
  H   -7.72070980340037     -4.01135063710734      0.00650964713885
  H   -8.65595835029892     -1.92683437131879      1.46739024365053
  H   -6.57009455595242     -0.20362967534814      1.78919984352785
  H   -3.41703757471652     -1.84815441037847      0.27670679828663
  H   5.57409750399030     -2.55650269669704      2.29492917022589
  H   7.77062627920112     -1.36012930476249      2.65321523251875
  H   7.77826750456245      1.04859870568124      1.90136075829311
  H   4.44512928455712      1.74807023756183      0.11537164795879
  H   7.28846024335735      3.04199926849171      2.46470882916512
  H   7.75375473850562      5.60359414566829      1.67736997436053
  H   5.99141890415216      6.14941734877323     -0.30511150622706
