91
Coordinates from ORCA-job ./opt_b3lyp_cdz
  C   0.02909513878616      7.59494034427705      0.94998711662259
  H   0.03284085913747      8.27723288457035      1.81661629929330
  H   0.02941794638703      8.23386683721645      0.04593889880517
  C   -1.23619669701609      6.72601932329646      0.95304859329562
  H   -1.31454089936559      6.18248665642031      1.91198325544123
  H   -2.14039902074479      7.35165352334744      0.86064764463080
  C   -1.21288357010035      5.70599099978480     -0.19274218258288
  N   0.01882775946952      4.91661934712572     -0.15753455457303
  C   0.01434339973755      3.55304462709152     -0.12972352123000
  N   1.22473711898213      2.94105494073683     -0.12420226320815
  C   1.23109840589572      1.61143096173154     -0.09374317441682
  N   2.37115708721499      0.90811288411869     -0.09064818374914
  C   2.39654731086727     -0.45582237921657     -0.06552767973241
  C   3.71632686501996     -1.05227187374296     -0.07621570864465
  C   4.01259946122636     -2.41648843874727     -0.12385137738210
  N   5.36292084222591     -2.58161616950015     -0.11924601504777
  C   5.98857668507202     -1.32988040812521     -0.05624086782804
  C   5.00066682420624     -0.35565692348224     -0.04531265302989
  N   5.12752877048061      1.00780950277855     -0.03221130904202
  C   6.29129769601604      1.76126784982570      0.07619637093213
  C   7.57702172084181      1.36387620153645      0.43113770041856
  N   8.37457948978891      2.49558671520696      0.41872626880705
  C   7.63487501064417      3.59100009407182      0.06274802137912
  C   6.33655548330374      3.17501346307191     -0.15906282793011
  H   5.49984515263026      3.80085144981211     -0.46127127097676
  H   8.08404099747272      4.57746731586938     -0.01438957253971
  H   9.36401705334773      2.50054756179688      0.61824432078007
  H   7.97573339823970      0.40564158259346      0.74005998709220
  H   4.22939515751577      1.49170831037452     -0.08391983189984
  H   7.06171539128099     -1.24943054790335     -0.16246727263941
  C   6.03784600146810     -3.82782287202432     -0.13679549383361
  C   7.24646946991431     -3.98356512842709      0.55992396473117
  C   7.90936814670684     -5.21228935332247      0.53788206777010
  C   7.37441185504234     -6.29680056148198     -0.16418968606276
  C   6.16890264823012     -6.13921349369808     -0.85571883366063
  C   5.50528711758248     -4.91110654839092     -0.85414383868966
  H   4.58739772882082     -4.78169106332228     -1.43020077138638
  H   5.74618625716159     -6.97482774055376     -1.41851872994846
  H   7.89468011297840     -7.25693978557067     -0.17556249971318
  H   8.84761301760948     -5.32375064778493      1.08657904516290
  H   7.64805839485284     -3.14888345331141      1.13625226154612
  H   3.35131501430827     -3.27321339130829     -0.10879233734217
  C   1.17528056681232     -1.19129837542896     -0.03496406230342
  C   0.00162398470012     -0.41653721383234     -0.03829875732704
  C   -1.17702735647374     -1.18306898237531     -0.00850011817776
  C   -0.69988500577079     -2.55118533302064      0.01334828414770
  C   0.68913897749646     -2.55601071279632     -0.00044563177649
  H   1.29279737652729     -3.46014117845705      0.01568466187086
  H   -1.30963342983901     -3.45119908220144      0.03146170286309
  C   -2.39347973016852     -0.43912265082994     -0.00927255437466
  C   -3.71687977694751     -1.02630418027118      0.03078506170181
  C   -4.02135457627602     -2.38395365088157      0.15344521617471
  N   -5.37262478589833     -2.54134869203809      0.15314583084616
  C   -5.99060314660314     -1.29148681291973      0.01800218084308
  C   -4.99690072845513     -0.32506517139252     -0.04313122602142
  N   -5.11541239150626      1.03628848949845     -0.13290114126922
  C   -6.27362414845968      1.78929323783137     -0.29166414552348
  C   -7.56061539226994      1.37973293159708     -0.62768983814261
  N   -8.35045483515949      2.51539121826696     -0.68697210909323
  C   -7.60472528741415      3.62534586424562     -0.39432873585253
  C   -6.31019406343397      3.21491191738986     -0.14217788983550
  H   -5.47024113476513      3.85241005529798      0.12455133935229
  H   -8.04733328285830      4.61765455394287     -0.37906762105651
  H   -9.33887228289410      2.51489684114400     -0.89152108482442
  H   -7.96482593870291      0.40733038394417     -0.87990614805197
  H   -4.21483188297442      1.51726756493732     -0.10050454409976
  H   -7.06361729737978     -1.19921257476594      0.11535369836975
  C   -6.05510860833737     -3.78066075156304      0.23800368724586
  C   -7.26164806118145     -3.96838023513171     -0.45444183413236
  C   -7.93205730798565     -5.19004515151043     -0.36647749222651
  C   -7.40668007851294     -6.23643668584053      0.39792357219394
  C   -6.20322787265499     -6.04715171563325      1.08507321727200
  C   -5.53217820947156     -4.82494617310740      1.01756067498632
  H   -4.61596681399480     -4.66873309623664      1.58962627669003
  H   -5.78797150273543     -6.85223998960026      1.69587697516858
  H   -7.93273237844757     -7.19141831901385      0.46080174129854
  H   -8.86854876563109     -5.32674652789616     -0.91245220460335
  H   -7.65563139102259     -3.16513831086112     -1.07870526807041
  H   -3.36492634636216     -3.24366524598302      0.19222177715782
  N   -2.35957409057038      0.92433958902366     -0.04660463707480
  C   -1.21498128198387      1.61973592253609     -0.07582029659644
  N   -1.20001331967470      2.94923993525642     -0.10853170314283
  N   0.00589998679361      0.93710662228949     -0.06839025471660
  C   1.25562633431611      5.69779316030963     -0.19682503196052
  H   1.30279235753032      6.22993066824729     -1.16836365975784
  H   2.10021437078420      5.00362335388926     -0.14776377885367
  C   1.28884177481448      6.71803522335760      0.94861506372824
  H   2.19671888467951      7.33782347139313      0.85314165668339
  H   1.36726365635236      6.17410583312578      1.90728817962588
  H   -2.06191659933161      5.01735350009603     -0.14263639846052
  H   -1.25888393537800      6.23896168721910     -1.16384705971911
