86
Coordinates from ORCA-job ./opt_b3lyp_cdz
  N   -5.10169648295885     -1.10813154083353     -0.01945682080760
  C   -4.99389438492655      0.26001935460369     -0.09191468408103
  C   -3.72081200137920      0.97293139329612     -0.10773505826952
  C   -4.03855791652921      2.33609903208084     -0.13208817913419
  N   -5.39030436894416      2.47573958253928     -0.13573400050596
  C   -5.99629500257315      1.21472384026586     -0.12296969146310
  H   -7.07012294284647      1.11189676598383     -0.03779064249327
  C   -6.08777483259049      3.71193436874284     -0.18725887312520
  C   -7.28693011617616      3.81216275518011     -0.90845727483050
  C   -7.96924435985068      5.02959790248205     -0.95418441111330
  C   -7.46165984431078      6.15411259512301     -0.29606232697100
  C   -6.26512382787478      6.05031862042413      0.42038722058887
  C   -5.58225685374891      4.83434887112809      0.48644006009979
  H   -4.67149951614266      4.74589228315932      1.08138284825083
  H   -5.86524547971733      6.91853345894180      0.94932375032675
  H   -7.99733317113207      7.10486501525064     -0.33781303760806
  H   -8.90077334548175      5.09967509523233     -1.52053244961157
  H   -7.66774761855623      2.94436120602098     -1.44882404976922
  H   -3.39356524076081      3.20149745655094     -0.21689219153139
  C   -2.39913177301532      0.39084846003992     -0.10197366284705
  N   -2.36015810710835     -0.97615888519110     -0.09363930602736
  C   -1.21804858405382     -1.66763070840772     -0.09274553431958
  N   -1.19580783615954     -3.00447059943557     -0.08290979512630
  C   0.01112826436935     -3.60365084657273     -0.08173403944790
  N   1.21457978263227     -2.99749331280141     -0.07917822521354
  C   1.22908382668922     -1.66054316113231     -0.08894868320137
  N   2.36715376812212     -0.96246109740828     -0.08627768184596
  C   2.39825135754183      0.40476262982725     -0.09441123416686
  C   3.71656567790559      0.99441508603711     -0.09595876060282
  C   4.02661811884196      2.35937733661617     -0.11900019919925
  N   5.37754806403935      2.50672282285793     -0.11838285158229
  C   5.99068314637485      1.24918305758002     -0.10408522838632
  C   4.99364750029760      0.28876491289312     -0.07640928278605
  N   5.10898661851901     -1.07875852972304     -0.00402640926182
  C   6.28147482795776     -1.81451537408752     -0.11905121918951
  C   7.52537444226761     -1.54877759952428     -0.67795036964382
  C   8.32792469532479     -2.71872880735976     -0.49002550568339
  C   7.56255295443579     -3.65662111117682      0.16746148988789
  N   6.31783287829198     -3.09411543108196      0.39095893117659
  H   5.56576358530287     -3.51737856922227      0.91792259454294
  H   7.78464735092427     -4.66989729977118      0.48911982520914
  H   9.35583225756945     -2.85456495660542     -0.81899578518510
  H   7.80715044022005     -0.64403142032599     -1.20721873122982
  H   4.20173877542564     -1.55217149334723     -0.04282466279387
  H   7.06480709972164      1.15246824269207     -0.01556623066896
  C   6.06809740274183      3.74690127804468     -0.16731113274575
  C   7.26889090528356      3.85425281771661     -0.88474503606536
  C   7.94435676765081      5.07559547889916     -0.92792702075912
  C   7.42829128421436      6.19694528468870     -0.27100150505932
  C   6.23014772430166      6.08604281474701      0.44168838067978
  C   5.55406086797079      4.86615702709876      0.50519758678395
  H   4.64197039918942      4.77225957631388      1.09725743348908
  H   5.82365734190238      6.95176215213243      0.96967411687945
  H   7.95863626869354      7.15076510083961     -0.31075774342192
  H   8.87722784619664      5.15121722048652     -1.49134488832256
  H   7.65634600845940      2.98883760863870     -1.42421987521542
  H   3.37698218018823      3.22113374112304     -0.20542757005580
  C   1.17505416355984      1.13857377970154     -0.09871135856771
  C   -0.00032662709522      0.36248655889941     -0.10454027119774
  C   -1.18020846103927      1.13173872220339     -0.10246366667886
  C   -0.70271869428833      2.49509709270179     -0.09026078270598
  C   0.68962174731128      2.49914323516987     -0.08803914845571
  H   1.29372028478940      3.40287177426033     -0.07271569088219
  H   -1.31212927333781      3.39528840135065     -0.07681301830646
  N   0.00357727126132     -0.98848003595109     -0.10088248879546
  C   0.01543270649353     -5.08996780073975     -0.08346120783385
  C   -1.19530025795526     -5.80572615803410     -0.08862381395009
  C   -1.18920328252898     -7.20082722343897     -0.09241593596796
  C   0.02357796789456     -7.89936726559435     -0.09183912329540
  C   1.23228464805483     -7.19381370205459     -0.08881571444885
  C   1.23029760805157     -5.79870425542924     -0.08502015583620
  H   2.16274091031164     -5.23449713189765     -0.08646017649149
  H   2.18140975473119     -7.73529125229436     -0.09150824953654
  H   0.02675010294367     -8.99226018663562     -0.09579247442256
  H   -2.13516332101435     -7.74779332325961     -0.09792883138772
  H   -2.13098394958581     -5.24692657440129     -0.09280606056498
  C   -6.26965492958845     -1.85048261403084     -0.13842065959685
  C   -7.51284734146774     -1.59203608865755     -0.70227358425667
  C   -8.30963406680726     -2.76626368901221     -0.51654625832561
  C   -7.54160421824395     -3.69943540929994      0.14456535290752
  N   -6.30088874407025     -3.12988851471483      0.37240472580099
  H   -5.54850373764800     -3.54857801397578      0.90255815888663
  H   -7.75933901054108     -4.71369441879073      0.46610931985256
  H   -9.33550743165724     -2.90803752276669     -0.84933964124879
  H   -7.79756553874689     -0.68923375053623     -1.23329357101623
  H   -4.19168212357952     -1.57640681174469     -0.05570134056017
