96
Coordinates from ORCA-job ./opt_b3lyp_cdz
  N   -5.08137426235096     -0.31217355613567     -0.22434661870694
  C   -6.23391327556241     -1.07837865416742     -0.12047733588502
  C   -7.51182870338476     -0.82499277584263      0.36165847618949
  C   -8.26396077907546     -2.03350443445980      0.20895279496160
  C   -7.43651479771951     -2.98034699550969     -0.35260727164827
  N   -6.19977252046305     -2.38819975985601     -0.54905425457077
  H   -5.41390354216598     -2.81383545787380     -1.02294186895504
  H   -7.60925976866300     -4.01688576376407     -0.62687351680053
  H   -9.30176366613317     -2.18661684611482      0.49660454576210
  H   -7.85076100715931      0.09821959395836      0.82049985599671
  C   -4.98850325443402      1.05676064795661     -0.16202329760037
  C   -5.99583225885601      2.00675373752617     -0.16558862662817
  N   -5.39549680611136      3.27080614803223     -0.14850061992007
  C   -4.04359863914726      3.13832717787676     -0.11729408139818
  C   -3.71879590887211      1.77652480314704     -0.12107450225812
  C   -2.39630682302919      1.19876288827115     -0.08555707227328
  N   -2.35934448045180     -0.17020845442997     -0.05903718119360
  C   -1.22096471223498     -0.86270256482289     -0.02191323347159
  N   -1.20559187687233     -2.19903369964660     -0.01047121877919
  C   -0.00204889952367     -2.79638969756732      0.01781123047717
  N   1.20226391367981     -2.20005521075415      0.03385553026040
  C   1.21934267147890     -0.86367760715664      0.01908749097001
  N   2.35865942515459     -0.17185023487075      0.03524201369413
  C   2.39699406389588      1.19725696757232      0.01853446551089
  C   3.71898317414282      1.77551020420050      0.05772160066897
  C   4.98957411996317      1.05626041066000      0.07819798598868
  N   5.08639368270313     -0.31369733008898      0.05667270885324
  C   6.24455768220926     -1.07016850700814     -0.05582517374524
  N   6.23625499596121     -2.37260892870251      0.39659307850869
  C   7.47587348220363     -2.95255289307458      0.18395377907644
  C   8.27906368354841     -2.00563870859144     -0.41223739994561
  C   7.50788935080548     -0.81016918692777     -0.57102212641226
  H   7.82317413482582      0.10797481432419     -1.05711333683538
  H   9.31178423772535     -2.15166153419116     -0.72112769635770
  H   7.66757955733454     -3.98235296991112      0.47082635701634
  H   5.46840406342662     -2.79636067852542      0.90080033857153
  H   4.17041169235768     -0.76957606905444      0.02734030786129
  C   5.99456957820849      2.00673792708518      0.12917869693005
  N   5.39304747110568      3.27033692560401      0.14516837202718
  C   4.04151816305960      3.13719589730640      0.10345441712728
  H   3.39748424813591      4.00463825913184      0.17612084245808
  C   6.09447887497449      4.50344926102711      0.22125113961554
  C   5.61444427633112      5.63037826127124     -0.46316932780450
  C   6.30046954757986      6.84297962139782     -0.37206867816068
  C   7.47518522666759      6.93857334861527      0.38069019237365
  C   7.95752187708244      5.80955368733279      1.05000161494983
  C   7.27136985197312      4.59543428074206      0.97927499190019
  H   7.63186053977163      3.72461671502866      1.52889774597265
  H   8.87163167471023      5.87341445364091      1.64472381840438
  H   8.01362459580754      7.88668801901340      0.44211912524640
  H   5.92077214960647      7.71489251020782     -0.90968100806257
  H   4.72170708525334      5.54815550028485     -1.08567143907662
  H   7.07077679154742      1.90078555212501      0.11972582461649
  C   1.17807760492420      1.93567617412207     -0.03275677673239
  C   0.69775061533517      3.29961694437989     -0.09224511659371
  C   -0.69273606992730      3.30017574247917     -0.12011182957465
  C   -1.17613091449890      1.93661743325019     -0.07956813012906
  C   0.00033411391305      1.16557530489812     -0.03303696189141
  N   -0.00055643799608     -0.18677086595172     -0.00510432929179
  H   -1.29988193065974      4.20042462160503     -0.17542098540473
  H   1.30751254155559      4.19923777826860     -0.12449893662672
  N   -0.00323286346113     -4.18976910738461      0.03050395521079
  C   -1.13676549659276     -5.02556464766001      0.25524091601630
  C   -0.71691906744866     -6.37625579721352      0.18874110366277
  C   0.70583942338016     -6.38005364602234     -0.09171099658572
  C   1.12834865244935     -5.03152284617798     -0.18086052719345
  C   2.46501021433389     -4.72292101653249     -0.47127214352708
  C   3.35817931178204     -5.78168783637218     -0.65978952251580
  C   2.94892444513140     -7.12130425833069     -0.56147607772175
  C   1.61844497174378     -7.42568607993940     -0.27862165294508
  H   1.28650288768680     -8.46402123156247     -0.20777631294739
  H   3.67355807948516     -7.92464765295823     -0.71181024027497
  H   4.40109389813847     -5.55067615446204     -0.89109973965991
  H   2.79232192559059     -3.69168883591716     -0.54568449299140
  C   -1.63179375874114     -7.41685053357381      0.39192173406731
  C   -2.96203754143754     -7.10515543115539      0.66777613572084
  C   -3.36882266547723     -5.76328835092835      0.74309711897840
  C   -2.47325007059330     -4.70946078264570      0.53864406026492
  H   -2.79923409235391     -3.67665119099721      0.59542933525928
  H   -4.41175956618342     -5.52634367315758      0.96809967593638
  H   -3.68853070479923     -7.90446252503687      0.83020376470179
  H   -1.30184002203315     -8.45686671308994      0.33856513428343
  H   -3.40466340187088      4.00729583804372     -0.02086880182417
  C   -6.10009664079671      4.50409792062091     -0.12394774123841
  C   -5.58588234790219      5.62210435840574     -0.79818209816371
  C   -6.27589350585050      6.83518833222362     -0.75851969410854
  C   -7.48759716244393      6.93981582974180     -0.06815422672875
  C   -8.00343856314840      5.81938654480312      0.59053376261345
  C   -7.31440352641111      4.60504112447655      0.57116866614120
  H   -7.70196986733468      3.74052720435360      1.11205711670023
  H   -8.94692668096141      5.89043245973321      1.13656750604343
  H   -8.02869256627410      7.88817076951672     -0.04712597543635
  H   -5.86940866821770      7.70017716969153     -1.28766256627162
  H   -4.66246279636776      5.53213520823244     -1.37306294620591
  H   -7.06634885006083      1.89961953510953     -0.28131455312385
  H   -4.16435748611636     -0.76424698767609     -0.16408875979239
