68
Coordinates from ORCA-job ./opt_b3lyp_cdz
  C   -6.13144673040590     -4.24376586571126      0.01472357437831
  N   -5.39471438529293     -2.99451870950242      0.03495476196514
  C   -5.99611899887804     -1.74026519596037      0.08430078171258
  C   -4.98916876230181     -0.78560725975792      0.08285074675339
  N   -5.08451218208977      0.58426691302793      0.08833557111374
  C   -6.22530182191626      1.34481379115769      0.30764729616062
  N   -6.21717464453205      2.67118514894697     -0.07937130962799
  C   -7.44294232982187      3.23612479929946      0.23588851132660
  C   -8.23045172779461      2.26474207228198      0.81459587371454
  C   -7.46614974953821      1.05874306426855      0.86607344006465
  H   -7.76682761386260      0.11309748441161      1.30604520305510
  H   -9.24675945277361      2.40242111415333      1.17703488235939
  H   -7.63559361124712      4.28409526700396      0.02281884654656
  C   -5.12082416498671      3.33438008393525     -0.76188966790910
  H   -5.41278956339583      4.37245600868438     -0.96928537643015
  H   -4.89214417274362      2.83360392912463     -1.71758826500042
  H   -4.19893894170671      3.34615642372851     -0.15609122795787
  H   -4.16418870978421      1.03375962908114      0.09122691617450
  C   -3.71977915883129     -1.50493057239698      0.04860881193382
  C   -4.05088517431545     -2.87088959724809      0.01701683494103
  H   -3.41264232434922     -3.74608351162247     -0.02722978813392
  C   -2.40142257504487     -0.92672136396195      0.04607052720763
  N   -2.36229751314026      0.44303959767170      0.01789471718296
  C   -1.22726598548914      1.13699210088113      0.00668293529522
  N   -0.00019032163087      0.46667564103720      0.01303816122338
  C   0.00003990434417     -0.88611508678359      0.04524504673386
  C   1.17755301556916     -1.65927411048366      0.07231011285938
  C   0.69698365129381     -3.01933056616644      0.12873633319768
  C   -0.69617006894060     -3.01956756425442      0.12878529002622
  C   -1.17720710082190     -1.65967520827068      0.07239411234650
  H   -1.30460723766577     -3.91942574187212      0.17798934828925
  H   1.30573017435873     -3.91898281459139      0.17788199592523
  C   2.40151551766607     -0.92590085787400      0.04589828444644
  N   2.36192663250580      0.44384540799531      0.01769298378127
  C   1.22665741606802      1.13741217516937      0.00656985843695
  N   1.20977053214257      2.48279300989318     -0.01186415931709
  C   -0.00063244052861      3.05375291878582     -0.01976010879792
  N   -1.21084164256406      2.48237924781594     -0.01174750422008
  H   -0.00082116116544      4.14953308673029     -0.03390123449837
  C   3.72006942849543     -1.50366273808958      0.04838485382345
  C   4.98920382170431     -0.78389365295929      0.08241524840163
  N   5.08408769324594      0.58601821227799      0.08767706357310
  C   6.22467912769919      1.34694860002096      0.30677033757994
  C   7.46553086229993      1.06145460538506      0.86548807267528
  C   8.22943413781074      2.26769083476618      0.81376177833312
  C   7.44176155002936      3.23859386673207      0.23445874776952
  N   6.21626528247216      2.67312358388246     -0.08084102262659
  C   5.11955367354465      3.33576264255026     -0.76324674205289
  H   4.19817248582371      3.34863101847832     -0.15671717743046
  H   4.88996440602698      2.83354640039998     -1.71796084356693
  H   5.41164159435747      4.37343160100322     -0.97247649572781
  H   7.63415233899828      4.28652433378610      0.02095920190369
  H   9.24565694422428      2.40580057765978      1.17627245882577
  H   7.76644063681550      0.11603166962691      1.30578009116535
  H   4.16362407488979      1.03521565099044      0.09070536713651
  C   5.99649114688424     -1.73819306165760      0.08392121939813
  N   5.39552533764670     -2.99266603848329      0.03479649242134
  C   4.05165089804263     -2.86951065173923      0.01694799657316
  H   3.41371277985310     -3.74493652982748     -0.02710094609648
  C   6.13269263140177     -4.24165870232449      0.01471392316241
  H   5.42634716504353     -5.08120112184438     -0.02896982045064
  H   6.74988457304834     -4.34141876433241      0.92237948331846
  H   6.79410893902699     -4.28645917276453     -0.86575655182381
  H   7.07453468225452     -1.63428950048497      0.07707210951806
  H   -7.07420060542609     -1.63675290811384      0.07753151488642
  H   -6.79285990787120     -4.28868829143981     -0.86574362941509
  H   -6.74859090200378     -4.34385280222695      0.92238522870956
  H   -5.42480931240454     -5.08305671367744     -0.02907266341296
