62
Coordinates from ORCA-job ./opt_b3lyp_cdz
  C   -9.81459442219166     -1.86750805709165     -0.66888617887248
  N   -8.38930247948040     -1.88702084331039     -0.42248346629306
  C   -7.58490380588108     -0.76017562554080     -0.35502007667556
  C   -6.28878554582366     -1.17815674253753     -0.06530262237567
  C   -6.32435633950971     -2.60540044772913      0.05022678353326
  C   -7.62838337311442     -3.00034006718410     -0.17630762803124
  H   -8.07549415355219     -3.99140295405859     -0.17219414311962
  H   -5.47925811116168     -3.25340591307533      0.27172340785719
  N   -5.12438922393978     -0.43246937338333      0.07704697790159
  C   -4.99535886315163      0.92601509837014      0.20355230698353
  C   -3.71121477530589      1.62397405721202      0.23483430665751
  C   -4.00613026197346      2.98739218921246      0.39144512126682
  N   -5.34695298181470      3.12456081196795      0.44939220146212
  C   -5.98438730329878      1.89534199768441      0.33079109358126
  H   -7.06060090971713      1.81621249460326      0.40492159557278
  H   -5.82835644828361      4.00494337917991      0.56887397518333
  H   -3.34744157716057      3.84234378688934      0.48555647737608
  C   -2.39742184414605      1.03378444220617      0.14038397419567
  C   -1.17559866661760      1.76858929809841      0.07190909955064
  C   -0.00044332856452      0.99410075137554      0.00660164335138
  C   1.17628759802763      1.76629924993419     -0.05739031381733
  C   0.69749385745181      3.12772883437802     -0.02764584081570
  C   -0.69398521993979      3.12908855874406      0.04467123614806
  H   -1.30031897646772      4.03139577315779      0.06564906992324
  H   1.30575695385769      4.02878293119062     -0.04667064082044
  C   2.39661507736221      1.02915663014748     -0.12698520157609
  C   3.71152834582114      1.61692943111655     -0.22094396840122
  C   4.99432028159631      0.91656607199398     -0.18928031134148
  N   5.12085249033997     -0.44217071154986     -0.06275549286852
  C   6.28404734436904     -1.18961164884369      0.08041537497799
  C   7.57981283034173     -0.77378386893859      0.37463226236063
  N   8.38193903016890     -1.90204632143333      0.44621321108902
  C   7.62052316429247     -3.01390766425325      0.19482009334208
  C   6.31788256578777     -2.61685180000795     -0.03588291272516
  H   5.47186376967356     -3.26374158110709     -0.25718914835172
  H   8.06625665838916     -4.00559774657484      0.19099389399384
  C   9.81053052632239     -1.88340776025904      0.67297766375844
  H   10.35046814358488     -1.41778185104776     -0.17042905479818
  H   10.17149031476106     -2.91456716978188      0.79075476337161
  H   10.05468735751345     -1.32530676970096      1.59245141250147
  H   7.98800900605479      0.20431760011363      0.60060289437540
  H   4.22509817454743     -0.93126428188653     -0.07511953962410
  C   5.98522180076746      1.88403987022896     -0.31607105378706
  N   5.35015119067187      3.11446630936233     -0.43485723441764
  C   4.00903925443859      2.97980281653472     -0.37742863462146
  H   3.35193968494833      3.83590226590711     -0.47228017405404
  H   5.83325239788745      3.99392121553745     -0.55444928335497
  H   7.06132882641956      1.80283264120047     -0.38965541886009
  N   2.36143325702770     -0.33675976356264     -0.11019878964635
  C   1.22451080550210     -1.03024985000163     -0.04975204254423
  N   -0.00177249347590     -0.35747949060921      0.00569481331081
  C   -1.22937818426408     -1.02787148504511      0.06052664030296
  N   -2.36489931876051     -0.33218059747154      0.12186375003397
  N   -1.21350435146315     -2.37096045333486      0.05486707107032
  C   -0.00434534488352     -2.94251969412387      0.00431798267266
  N   1.20595034753151     -2.37331030822744     -0.04557581936898
  H   -0.00543627016306     -4.03850425186040      0.00370323568541
  H   -4.22939384269366     -0.92300845897821      0.08799549017006
  H   -7.99249830209637      0.21859307600975     -0.57909231021676
  H   -10.35665766365259     -1.34389894475359      0.13793498021194
  H   -10.18595515434146     -2.90014503316055     -0.72375680238221
  H   -10.04463279886662     -1.36605438743042     -1.62439578702304
