58
Coordinates from ORCA-job ./opt_b3lyp_cdz
  N   -0.00040452767405     -4.24868241565402      0.50323315539968
  C   -0.00025383823703     -2.89884097616736      0.36835412327138
  N   1.21698071017245     -2.31547968259903      0.30193066065571
  C   1.22583389074569     -0.99138355385714      0.13728221249688
  N   2.36513883711598     -0.29756244772460      0.05067020384705
  C   2.39607874123789      1.05786844353379     -0.12687346410483
  C   1.17577976308504      1.78409548879845     -0.24287899146460
  C   0.00020856704693      1.02076761598461     -0.12779062407215
  C   -1.17518747235895      1.78441717748257     -0.24251107657935
  C   -0.69410806210339      3.13312707974211     -0.46205808812092
  C   0.69500102425952      3.13293257689901     -0.46229585764612
  H   1.30473114919961      4.01799142058724     -0.62731355661035
  H   -1.30365014649602      4.01835071668994     -0.62688898553434
  C   -2.39565815417173      1.05853846472779     -0.12611030095241
  N   -2.36505548652128     -0.29690880203669      0.05140096265420
  C   -1.22590794404428     -0.99104832246400      0.13764397932519
  N   -1.21735441952597     -2.31515049518613      0.30229467180399
  N   0.00004411297740     -0.32156812414203      0.05736332714701
  C   -3.71477788465786      1.64679604482076     -0.17974351497003
  C   -4.02666397112011      3.01331182158922     -0.25270860643989
  N   -5.37097204418650      3.13712421074261     -0.28079786589484
  C   -5.99167276730149      1.89554736228579     -0.23368920159240
  C   -4.98939405885941      0.93879690028022     -0.15890338783978
  N   -5.09988363881869     -0.42977274177629     -0.06178282887728
  C   -6.25615001916227     -1.17985329348355     -0.21388810541122
  N   -6.29331955084717     -2.45878739568967      0.29783276291406
  C   -7.52351495676610     -3.03862780698859      0.03543252660506
  C   -8.27848398889424     -2.11172594041931     -0.64851326468548
  C   -7.48541904223218     -0.93137990572523     -0.81328182872645
  H   -7.76182960861142     -0.03199978298782     -1.35439109599983
  H   -9.29346019862782     -2.26114085506321     -1.01041319187275
  H   -7.74231041558709     -4.05420634844579      0.35208509650176
  H   -5.54956687379314     -2.87404194167612      0.84250151728273
  H   -4.18757390695494     -0.89261030457189     -0.00463517423340
  H   -7.07000010633585      1.80052973203492     -0.22284322578345
  H   -5.86494276558492      4.01748007109819     -0.32932677887570
  H   -3.37956400510144      3.88223260203751     -0.26506925528812
  C   3.71537288401336      1.64567701197255     -0.18099278859558
  C   4.02774019960637      3.01206133945147     -0.25430576328499
  N   5.37208596038409      3.13535975395732     -0.28294240894150
  C   5.99233810400773      1.89355667836229     -0.23575663044648
  C   4.98972218138339      0.93720766400624     -0.16036394875412
  N   5.09967763488315     -0.43137601168026     -0.06287246174635
  C   6.25551796432206     -1.18204138090041     -0.21529633222563
  N   6.29216018936525     -2.46097347944060      0.29647091519381
  C   7.52198173632105     -3.04146812054680      0.03375798032355
  C   8.27726099558974     -2.11497440643750     -0.65039593539258
  C   7.48475060920064     -0.93423670495189     -0.81504120423108
  H   7.76149056444775     -0.03503936923439     -1.35628330029943
  H   9.29207168737233     -2.26492033107665     -1.01253968805511
  H   7.74033509169595     -4.05714607284626      0.35039650900171
  H   5.54831213054743     -2.87584204719208      0.84130796156227
  H   4.18717977018352     -0.89379864136066     -0.00531239436787
  H   7.07063299084445      1.79814623321653     -0.22523266530079
  H   5.86637066979840      4.01551895026771     -0.33183768125533
  H   3.38096177868956      3.88122002302615     -0.26666911546353
  H   0.87743819416956     -4.71739857280323      0.67942464232268
  H   -0.87830421760530     -4.71718821127737      0.67969008210650
