71
Coordinates from ORCA-job ./opt_b3lyp_cdz
  C   -6.12904602727286     -4.36386998040071     -0.01543892015695
  N   -5.39325230171221     -3.11423591852767     -0.03566791297938
  C   -5.99518051293157     -1.86006335107426     -0.08124584864588
  C   -4.98852773413850     -0.90520106677002     -0.07884133749320
  N   -5.08428525210804      0.46506058212911     -0.08010123177535
  C   -6.22658151881966      1.22438850448345     -0.29506369146972
  N   -6.22355460806439      2.54699284515881      0.10480851496646
  C   -7.45053593144830      3.11143383556937     -0.20709703093198
  C   -8.23390448028091      2.14317024078371     -0.79657853097658
  C   -7.46558001973704      0.94010398932197     -0.85842072021561
  H   -7.76229857218599     -0.00230842323810     -1.30799918116870
  H   -9.24993664525645      2.28122479208847     -1.15969641015657
  H   -7.64669029424050      4.15675557402474      0.01564506252830
  C   -5.13150233659538      3.20516956354017      0.79828245813779
  H   -4.20655012303938      3.22074804786586      0.19732318673763
  H   -4.90765421955472      2.69722194055185      1.75140124314628
  H   -5.42466436606866      4.24176840014147      1.01164817905071
  H   -4.16348835520839      0.91423528430898     -0.08631882856338
  C   -3.71903429229746     -1.62355260850527     -0.04791200159384
  C   -4.04918168517720     -2.98944805019465     -0.01879741529925
  H   -3.41032581075458     -3.86434676027647      0.02180149050064
  C   -2.40003439771148     -1.04458837530898     -0.04634546181446
  N   -2.36080828433247      0.32484777400556     -0.01953955341760
  C   -1.22338231709353      1.01841420035547     -0.00945914583870
  N   0.00005864277609      0.34540997420795     -0.01471036120901
  C   -0.00003996128279     -1.00757027851661     -0.04638917209669
  C   1.17705677380798     -1.77999996639732     -0.07195582777862
  C   0.69609793687680     -3.14107415678423     -0.12590091816901
  C   -0.69649867889136     -3.14096653966350     -0.12607534874226
  C   -1.17725236910056     -1.77981905292203     -0.07221706205874
  H   -1.30507338672734     -4.04086286956922     -0.17317319969742
  H   1.30454350804604     -4.04106506055059     -0.17285103686852
  C   2.39995006060050     -1.04495023416109     -0.04582402082997
  N   2.36093451558989      0.32448574127296     -0.01903671551935
  C   1.22361382163043      1.01823857811666     -0.00919774776734
  N   1.20681241933614      2.36067598547348      0.00464521339938
  C   0.00024895752241      2.95476820348680      0.01189950064372
  N   -1.20639061069863      2.36087633837841      0.00438795317342
  C   0.00044881230410      4.45847794505881      0.05552444695090
  H   -0.90455852187189      4.85734797617754     -0.42220784154631
  H   0.00273932888645      4.79558111989388      1.10733714765865
  H   0.90366396800776      4.85715200699324     -0.42580438653423
  C   3.71885848956740     -1.62409418460353     -0.04712021101212
  C   4.98843941239586     -0.90589259214861     -0.07780021207699
  N   5.08433044536627      0.46436201133396     -0.07906075144207
  C   6.22674993141743      1.22358633747507     -0.29371738465223
  C   7.46587268330620      0.93918786843463     -0.85674740456058
  C   8.23430224332260      2.14217421842651     -0.79467012469798
  C   7.45086938801971      3.11050952338104     -0.20539320521409
  N   6.22374619041041      2.54618804527473      0.10617257021343
  C   5.13158617589935      3.20446571396564      0.79939174968315
  H   4.20678741291263      3.22016026536159      0.19820148326625
  H   5.42480448088359      4.24103083725353      1.01284339233874
  H   4.90744422143117      2.69653249962225      1.75244986930167
  H   7.64706459935817      4.15581133598960      0.01740644830260
  H   9.25044480347925      2.28013508593530     -1.15751453435588
  H   7.76261071095960     -0.00324133073415     -1.30627549102107
  H   4.16357449018316      0.91361689201179     -0.08546310276783
  C   5.99498341713659     -1.86087420421064     -0.07995831662231
  N   5.39288870282071     -3.11497148169243     -0.03451790044591
  C   4.04882912406526     -2.99002267556440     -0.01796327923778
  H   3.40986048428216     -3.86484371982277      0.02250166222181
  C   6.12853192472030     -4.36469352864757     -0.01410470358682
  H   6.75462195446740     -4.45989779567201     -0.91615489602591
  H   5.42093475687499     -5.20375929583373      0.01735199034883
  H   6.78126588546816     -4.41585591073979      0.87259765717211
  H   7.07313614057304     -1.75780650212029     -0.07153603292045
  H   -7.07332396841958     -1.75686417502318     -0.07305871879244
  H   -5.42155073767722     -5.20301440928799      0.01621128889786
  H   -6.75491133389357     -4.45900996660652     -0.91765204395075
  H   -6.78201651261717     -4.41494968838497      0.87109375825915
