62
Coordinates from ORCA-job ./opt_b3lyp_cdz
  C   -6.07410020482772     -4.05557103295923     -0.43982957687890
  N   -5.36239549056627     -2.80109613302139     -0.29968637990559
  C   -5.98644302341254     -1.56203321134302     -0.17791860603142
  C   -4.99683132766065     -0.59006650201390     -0.08223431839236
  N   -5.12157114986187      0.76857555269304      0.03295802778625
  C   -6.28276135883121      1.51821383687800      0.18799558309961
  C   -7.57356446461897      1.10449423067940      0.50329221469064
  N   -8.36369867773802      2.23979870967506      0.56598490664642
  C   -7.61316028212434      3.35311768616634      0.29807656167280
  C   -6.31593268588457      2.94552571419579      0.05665275166138
  H   -5.47078713999539      3.58502648359781     -0.18851715895978
  H   -8.05457323664108      4.34603462110875      0.29124536340471
  H   -9.35295626482118      2.23851489107919      0.76625858353559
  H   -7.98064239501927      0.12948904683451      0.74115180843550
  H   -4.22489483539588      1.25628607522719      0.00675553576889
  C   -3.71518571738038     -1.28918247631784     -0.13379780983350
  C   -4.02134546294753     -2.65304770027968     -0.27007716933347
  H   -3.36573491031417     -3.51077198726616     -0.36762233742381
  C   -2.40027166263562     -0.70184075030626     -0.07368704281113
  N   -2.36534279469912      0.66522831797310     -0.05807785635197
  C   -1.22815319946892      1.35943280984812     -0.02554700864628
  N   -1.21121767155544      2.70301222900782     -0.02175145749738
  C   -0.00064742821616      3.27328842920524     -0.00035430139055
  N   1.21013134489569      2.70347077830763      0.02123983252184
  C   1.22757773393851      1.35989768403348      0.02550581832194
  N   -0.00016629774527      0.68846785339707      0.00009912703119
  C   0.00007659285667     -0.66373779623874      0.00029071195111
  C   1.17728295380257     -1.43667725787373      0.03580888274289
  C   0.69702556576580     -2.79769291142732      0.01950940465277
  C   -0.69602948381313     -2.79796798176348     -0.01859471309766
  C   -1.17683010526196     -1.43714197862025     -0.03503169666137
  H   -1.30360201917310     -3.69973376350902     -0.02424839940617
  H   1.30496824573122     -3.69920551275966      0.02519607022698
  C   2.40043726186858     -0.70090928421269      0.07438000047710
  N   2.36503258678915      0.66613953819335      0.05828423938225
  C   3.71557429652687     -1.28774845728476      0.13458803656416
  C   4.02230190821304     -2.65140723143126      0.27158775286660
  N   5.36342144607331     -2.79890233061017      0.30098746427827
  C   5.98694489908431     -1.55967683834494      0.17840086012764
  C   4.99689478163849     -0.58811992605418      0.08258716657631
  N   5.12096758036138      0.77057626596864     -0.03317391851592
  C   6.28175497132314      1.52074362277811     -0.18884311415340
  C   7.57237585430024      1.10764441653728     -0.50567294277551
  N   8.36204448367401      2.24325326680771     -0.56853923951791
  C   7.61139736156878      3.35619141608809     -0.29930441166396
  C   6.31454151923338      2.94802842486068     -0.05682871141343
  H   5.46943164387399      3.58712019348387      0.18953038903993
  H   8.05249090312533      4.34924773817301     -0.29234147495287
  H   9.35111899665418      2.24239769369549     -0.76972769438307
  H   7.97952115408950      0.13289808788129     -0.74456571926697
  H   4.22408173853667      1.25787696583893     -0.00671117391946
  H   7.06494417795068     -1.48011043026942      0.23338435813289
  C   6.07563711867833     -4.05302951775868      0.44165479732844
  H   5.35287865584354     -4.87628837208077      0.51772928823201
  H   6.72610101575411     -4.23057899014420     -0.43065246116574
  H   6.70169818220959     -4.04545675260011      1.34925967796587
  H   3.36705177556959     -3.50933379300157      0.36974657693696
  H   -0.00085165235831      4.36938087979057     -0.00054509929221
  H   -7.06445591542604     -1.48308408076038     -0.23307549078306
  H   -5.35101021841581     -4.87858907227987     -0.51536178198674
  H   -6.70001061876592     -4.04870534165738     -1.34754398554388
  H   -6.72464171293062     -4.23292901342460      0.43246003708983
