74
Coordinates from ORCA-job ./opt_b3lyp_cdz
  C   5.71152735104179      2.36182832139877      1.86181891968445
  H   5.30317831585846      3.17106061776484      2.48908560847918
  H   4.99101486047503      1.53176655363169      1.85826099505087
  H   6.64765392106921      2.00659147656018      2.32054153935996
  C   5.96778713994281      2.89084545126290      0.44488402772811
  N   6.68763909349104      1.91673636623934     -0.39724621542577
  C   6.32161774846888      0.62312803162879     -0.74221384697220
  C   7.30970629064609      0.09726006378463     -1.56579527516150
  C   8.30267544264394      1.10429558109910     -1.73417106277678
  C   7.88945478950375      2.20817172723852     -1.01875216321225
  H   8.34308208785500      3.18832724095166     -0.89723363193673
  H   9.21494027338255      1.02972607486235     -2.32200669458309
  H   7.29309523568394     -0.89415793003919     -2.01071925270885
  N   5.13745200638163      0.05184858947375     -0.26331080783571
  C   4.99468340580348     -1.28554963248312      0.04791854476188
  C   5.98766393426733     -2.23224995392320      0.25463282252357
  N   5.36045589679708     -3.42220858674355      0.59706716028117
  C   4.01852499137971     -3.28400988542580      0.60330361123231
  C   3.71591897290652     -1.95513786799363      0.25874468378656
  C   2.40032411175404     -1.37710104395147      0.13778583272310
  N   2.36629579934373     -0.03080542191184     -0.10407466985980
  C   1.22779598165819      0.65045599310983     -0.22692877770536
  N   1.20879570895925      1.97195594486291     -0.47219260653297
  C   -0.00044310388046      2.53485536873560     -0.57532182155035
  N   -1.20970203441536      1.97197460539419     -0.47225870970977
  C   -1.22875601799545      0.65049692059635     -0.22691430427681
  N   -0.00049502220888     -0.00737950179946     -0.09786643193657
  C   -0.00050694344421     -1.33923438886013      0.13137684009975
  C   1.17720367709872     -2.10316521503395      0.24870609985035
  C   0.69577589507769     -3.45118834883664      0.43922247650583
  C   -0.69683140243969     -3.45117740709974      0.43916723022045
  C   -1.17823303786335     -2.10313539208156      0.24868701254029
  C   -2.40133961351073     -1.37704370130207      0.13780581998361
  N   -2.36728925211978     -0.03071064796028     -0.10396385646112
  C   -3.71692286107366     -1.95506197718862      0.25868725462539
  C   -4.99568846433113     -1.28550654612616      0.04760896769236
  C   -5.98868612162892     -2.23214533432359      0.25464542080309
  N   -5.36148913637732     -3.42199584562499      0.59746804396319
  C   -4.01956452105506     -3.28383053474673      0.60361131911316
  H   -3.36836354623119     -4.10806559115154      0.86864888958439
  H   -5.85050972189471     -4.28007923948285      0.81275151190121
  H   -7.06724866099082     -2.15119212076932      0.19738691464770
  N   -5.13834954139047      0.05167855219406     -0.26427620758906
  C   -6.32265437849992      0.62355230376443     -0.74185895489399
  C   -7.31243695171799      0.09756591425229     -1.56335617891969
  C   -8.30496727308134      1.10513823281390     -1.73114055093392
  C   -7.88984354528359      2.20941620764862     -1.01748901461563
  N   -6.68725283855059      1.91772785404050     -0.39751274166200
  C   -5.96510119077963      2.89262899609983      0.44176005401598
  H   -6.67258214684457      3.73334968639519      0.52608216655865
  C   -5.70538502652855      2.36515011348505      1.85864999089582
  H   -4.98482680716135      1.53512995332897      1.85440403084159
  H   -6.64039370613285      2.01035597051041      2.31998133023676
  H   -5.29557324678570      3.17506412570541      2.48407677926703
  C   -4.69734326693639      3.42713930075241     -0.23888348141854
  H   -3.88697469389021      2.68341612983078     -0.29590648532101
  H   -4.30409302448105      4.28309601597511      0.33476483925999
  H   -4.92304641859245      3.77553221956339     -1.25910818628369
  H   -8.34258778198158      3.19000092669645     -0.89616111631729
  H   -9.21822765270292      1.03059466132915     -2.31743084096258
  H   -7.29719648995374     -0.89427854953433     -2.00736077963871
  H   -4.24278441524246      0.51991445289252     -0.41325227730780
  H   -1.30479164769483     -4.34629778206286      0.54478228789591
  H   1.30368435874408     -4.34634179425790      0.54484781838370
  H   -0.00042772052068      3.61237063103599     -0.77436585948841
  H   3.36733536676573     -4.10830348728830      0.86818606291370
  H   5.84945517188094     -4.28035981260188      0.81213000057757
  H   7.06622183819936     -2.15140840330739      0.19704095443229
  H   4.24188454545366      0.51977437179698     -0.41338469792570
  H   6.67553597049800      3.73143529018171      0.52829911006252
  C   4.69837076552069      3.42626937754395     -0.23196256479647
  H   4.92144410795571      3.77517900331866     -1.25259647205122
  H   3.88760124485649      2.68287555977312     -0.28738085061346
  H   4.30709847834954      4.28212991858845      0.34317675260175
