80
Coordinates from ORCA-job ./opt_b3lyp_cdz
  C   -6.09561875869628     -4.74501050231584     -0.10623522637820
  N   -5.37081382107896     -3.48924504788814     -0.07429914049133
  C   -5.98307576443186     -2.24050961633559     -0.02728165176992
  C   -4.98457562930017     -1.27754737135986     -0.01198066608421
  N   -5.09763406418503      0.09272091658093     -0.00534038394096
  C   -6.25888966624193      0.82475635089292      0.21293573617015
  N   -6.31066489215586      2.13200497532143     -0.23165247149515
  C   -7.54604648355993      2.66791841359215      0.09445325153993
  C   -8.28353464802222      1.69446338590454      0.73317084615368
  C   -7.47456993855276      0.52001513610577      0.81493320151042
  H   -7.72965960319467     -0.41815682980357      1.29805415525396
  H   -9.29573860184866      1.81099769669126      1.11411677585570
  H   -7.78132608387406      3.69916377206036     -0.15456111312479
  C   -5.24817958488971      2.80679005077720     -0.95287909772309
  H   -4.96175966896483      2.23441264115751     -1.85032739014740
  H   -4.34592462717652      2.93833540105440     -0.33128234787495
  H   -5.60572669751597      3.79738924392873     -1.26405343222320
  H   -4.18439686081090      0.55522120795609      0.03291237906581
  C   -3.70933247663047     -1.98424945573465     -0.03447191917103
  C   -4.02781311897159     -3.35272060227382     -0.07589510739779
  H   -3.38166475982625     -4.22238070898021     -0.10814580772183
  C   -2.39340808579998     -1.39690383478990     -0.01767143688117
  N   -2.35892228113968     -0.02804238586010     -0.01206093907870
  C   -1.22076814769900      0.66869376979608      0.00230055913547
  N   0.00428990538096     -0.00413419632702      0.01155636757702
  C   0.00623917803024     -1.35677950631185      0.00846560271368
  C   1.18549902749694     -2.12691957377655      0.01701677091632
  C   0.70741423861234     -3.48984679265492      0.00626310781394
  C   -0.68503794992385     -3.49212381310548     -0.00493417669945
  C   -1.16897481831305     -2.13095793411151     -0.00523794415856
  H   -1.29064888892597     -4.39512200788430     -0.01069032754629
  H   1.31664415172231     -4.39037346356401      0.00285102483467
  C   2.40629781544774     -1.38885047695877      0.03344924974788
  N   2.36524501083326     -0.01876307394422      0.03299485163309
  C   1.22501063187940      0.67075572694965      0.02193137709089
  N   1.20407353731213      2.01456916058665      0.02366602349319
  C   0.00280775549194      2.61157680682478      0.01569667574497
  N   -1.20161478193471      2.00734197480744      0.00510035178779
  C   -0.03142490808775      4.14587473083731      0.01903560752882
  C   1.38386018563221      4.74381380075866      0.03005892056735
  H   1.96171122650861      4.42923417575719     -0.85165331572765
  H   1.31846970232406      5.84435751600267      0.02898289853376
  H   1.94572058206900      4.43098377970053      0.92278623949942
  C   -0.80048182817661      4.61241917670730      1.27632748465496
  H   -1.81531992080827      4.18965810495544      1.29819751973238
  H   -0.27927068456368      4.30167122746403      2.19722161798144
  H   -0.87601868569062      5.71251643187297      1.28497718402026
  C   -0.78151471913925      4.61881677313131     -1.24727552844650
  H   -0.85477016498760      5.71907131985500     -1.25254400666138
  H   -0.24832628413970      4.31047589171242     -2.16205529242287
  H   -1.79704449732346      4.19858545655727     -1.28360916138357
  H   5.60017242077126      3.82947118480805      1.24288098090010
  C   5.24698562678270      2.83371048694267      0.94346253641351
  N   6.30858075507648      2.16029275314267      0.21916302477643
  C   7.54007599703032      2.69998811601403     -0.11501540798684
  C   8.27902196507751      1.72693404610389     -0.75273250070494
  C   7.47502137589634      0.54850628089540     -0.82516170281393
  C   6.26082054995875      0.85078890469158     -0.21886381215500
  N   5.10395515806624      0.11433115835261      0.00803830330541
  C   4.99682600127199     -1.25626322118102      0.02045451958314
  C   5.99990098953019     -2.21455136381065      0.03584027072755
  N   5.39377254468531     -3.46598036559605      0.08957448153352
  C   4.05018231144763     -3.33600034585622      0.09487840233885
  C   3.72502032117580     -1.96915418990683      0.04919589588969
  H   3.40813843740646     -4.20836222985483      0.13576654659579
  C   6.12477738053125     -4.71801258186500      0.12705720432016
  H   6.75909508758415     -4.82260988444109     -0.76816716778507
  H   5.41390159311191     -5.55431188676971      0.15838222864716
  H   6.76881969022278     -4.76442642530247      1.02035014307451
  H   7.07829750466098     -2.11345393466013      0.04807764043594
  H   4.18913443557786      0.57374881667861     -0.02354375231373
  H   7.73200161352346     -0.39075288923615     -1.30516097346627
  H   9.28882215130995      1.84630423898889     -1.13914079407447
  H   7.77183474932402      3.73343880787350      0.12807688191399
  H   4.97259230540846      2.26730074518142      1.84850879870935
  H   4.33872327432419      2.95417852522540      0.32889598052047
  H   -7.06189740037152     -2.14462081372863     -0.04380388473647
  H   -5.38063686933914     -5.57784922991921     -0.13648728224578
  H   -6.72775413332683     -4.85011843443754      0.79050819106711
  H   -6.74107340147667     -4.79741181275275     -0.99815673467690
