68
Coordinates from ORCA-job ./opt_b3lyp_cdz
  C   -6.13188681353087     -4.36952697443581     -0.02899652000835
  N   -5.39417784760658     -3.12102886169389      0.01233206873059
  C   -5.99543441761009     -1.86774919799864      0.08157944993695
  C   -4.98857476830565     -0.91296527328778      0.09459063831598
  N   -5.08655929485244      0.45600657059232      0.12257354779800
  C   -6.23099472439563      1.20930592067177      0.35176134969959
  N   -6.23247580902153      2.53859108623133     -0.02477671923377
  C   -7.45935264956142      3.09370328802172      0.30176898443368
  C   -8.23892126264173      2.11286976257990      0.87556528540871
  C   -7.46760825585698      0.91113196575706      0.91320546722660
  H   -7.76103912144027     -0.04010546116649      1.34599953099208
  H   -9.25473922554171      2.24138355848697      1.24261223134706
  H   -7.65890644439002      4.14236366826701      0.09879270919139
  C   -5.13863461345273      3.21774142497508     -0.69579124885545
  H   -4.22785447782762      3.25566755107318     -0.07447750084850
  H   -5.44801680474572      4.24723552011633     -0.91945748703197
  H   -4.88450006505735      2.71158609604242     -1.64185905108860
  H   -4.16891549184481      0.90944764569950      0.12940612522538
  C   -3.71897305761402     -1.63239202772978      0.04907261092547
  C   -4.05096286528838     -2.99829872008147     -0.00377418516226
  H   -3.41309444058181     -3.87278370559376     -0.06397497377383
  C   -2.40072300379439     -1.05797620192149      0.05409212622597
  N   -2.35993543496601      0.31519052868548      0.03940255951342
  C   -1.22592783026555      1.00367201730399      0.03311246482735
  N   0.00038505264883      0.33331818051795      0.03190258652445
  C   -0.00047133361306     -1.02085827586019      0.05299239983214
  C   1.17611134440176     -1.79326792979459      0.07351239540354
  C   0.69376934192521     -3.15582134677310      0.12028323633521
  C   -0.69739827940701     -3.15493116484885      0.12068255921464
  C   -1.17802190161872     -1.79176050966514      0.07426569726623
  H   -1.30712259359966     -4.05412058083173      0.16504361201683
  H   1.30236210478126     -4.05579353489978      0.16426169442956
  C   2.39972130383627     -1.06102742849338      0.05254744846259
  N   2.36068318637416      0.31218961108390      0.03787402626939
  C   1.22755417791348      1.00211144892401      0.03230606845672
  N   1.20915172432964      2.34862666623242      0.02526422163784
  C   0.00201455253590      2.89238879991542      0.02166140977101
  N   -1.20581541484472      2.35016305382202      0.02606927163705
  F   0.00285878283622      4.22496456916323      0.01178166440373
  C   3.71726469258426     -1.63704899719200      0.04681776744989
  C   4.98769930485709     -0.91909038265089      0.09132602531281
  N   5.08729116786267      0.44976024315818      0.11870533321151
  C   6.23265101094834      1.20185260100717      0.34717629471284
  C   7.46912058453419      0.90249019454280      0.90831876511200
  C   8.24180361959072      2.10332511819309      0.86987065454855
  C   7.46319447546596      3.08478049001801      0.29584625498197
  N   6.23556777442467      2.53093259140928     -0.03004935183784
  C   5.14227555705584      3.21106016187173     -0.70098232098307
  H   4.23179743630496      3.25042413943302     -0.07931540073298
  H   4.88715090512236      2.70470631988008     -1.64667474102245
  H   5.45283228847951      4.24005513294529     -0.92531297208393
  H   7.66387261467609      4.13312932758603      0.09237107159350
  H   9.25788024549832      2.23085908121962      1.23654531816991
  H   7.76155573644315     -0.04891169307152      1.34142564427130
  H   4.17020254935740      0.90430479896625      0.12605115094556
  C   5.99346265393410     -1.87503886814751      0.07807035565917
  N   5.39071339028080     -3.12764052418985      0.00954762570159
  C   4.04763243906396     -3.00335669748549     -0.00584129076294
  H   3.40870538452411     -3.87710958107642     -0.06540610114639
  C   6.12692974500810     -4.37702041081218     -0.03175158637353
  H   5.41985877540353     -5.21514529482514     -0.08797775930870
  H   6.74511156124467     -4.49128315071951      0.87340976618885
  H   6.78699656245278     -4.40749005208764     -0.91372964995129
  H   7.07161316076715     -1.77255053552772      0.07310437764874
  H   -7.07347258499713     -1.76405878201016      0.07721180396387
  H   -6.79227623615835     -4.39903700772987     -0.91076734309742
  H   -6.74990738184170     -4.48323377375243      0.87634299988566
  H   -5.42582629648513     -5.20847691703726     -0.08561682731122
