74
Coordinates from ORCA-job ./opt_b3lyp_cdz
  C   -6.89346854740337     -3.97047475850950     -0.84492350081770
  H   -6.26711304108438     -3.94922839731962     -1.75002085344699
  H   -7.71250613601505     -3.24556056275964     -0.97843986421184
  H   -7.34050209690787     -4.97340711381243     -0.75290063307866
  C   -6.06284576361917     -3.64855343505096      0.40334775028077
  N   -5.36514184410406     -2.36369238540070      0.25810020460405
  C   -5.98690928222479     -1.12320903903210      0.11640732589655
  C   -4.99674207685376     -0.15160953419272      0.02543134245446
  N   -5.12222268035012      1.20686460688945     -0.10295101967598
  C   -6.28132224574350      1.95382469899362     -0.28138731581162
  C   -7.56619591893367      1.53737229016378     -0.61725954248652
  N   -8.35644579950927      2.67165291107235     -0.69946399317473
  C   -7.61181989991806      3.78694079443708     -0.42353242369772
  C   -6.31863526469251      3.38186334425736     -0.15739542395657
  H   -5.47863040541029      4.02349234495778      0.09965062545809
  H   -8.05427735461259      4.77941939818098     -0.42897887565406
  H   -9.34212285824873      2.66839201463204     -0.91653444146682
  H   -7.96771927636364      0.56098969013545     -0.85897997767813
  H   -4.22720546085232      1.69645883434042     -0.06317695384608
  C   -3.71604735757388     -0.84761109498144      0.09965362172275
  C   -4.02386643616690     -2.21043158316565      0.24433763450086
  H   -3.36785698892520     -3.06572546569707      0.36021576607556
  C   -2.40107539798155     -0.25972405309774      0.05149830495819
  N   -2.36633718146931      1.10751257552187      0.03379619632523
  C   -1.22903579490050      1.80185614332545      0.01308420483919
  N   -1.21225684333747      3.14556625024330      0.00832693138395
  C   -0.00160059584210      3.71596936839225      0.00097284184559
  N   1.20951751162219      3.14654253732540     -0.00598259374421
  C   1.22738720847839      1.80284358196511     -0.00981601130747
  N   -0.00055344834776      1.13130151246300      0.00184993898210
  C   -0.00000871423085     -0.22096242991673      0.00234071073047
  C   1.17763437182897     -0.99365356975570     -0.02069189642836
  C   0.69756766646552     -2.35482021324837     -0.00851072584675
  C   -0.69583557674879     -2.35538070844785      0.01496510798468
  C   -1.17702138081846     -0.99459670829357      0.02599677981887
  H   -1.30379959627924     -3.25692375425690      0.01380211293875
  H   1.30628304238157     -3.25585608959754     -0.00652837955466
  C   2.40108981266564     -0.25781049234837     -0.04675934962218
  N   2.36525385518839      1.10940904441359     -0.03002791379197
  C   3.71652520303886     -0.84469494298465     -0.09452259420528
  C   4.02540386294421     -2.20734849414535     -0.23851363459002
  N   5.36679926628411     -2.35958491660151     -0.25210335316964
  C   5.98759822593436     -1.11855120836077     -0.11097215758963
  C   4.99667518544543     -0.14766861121029     -0.02055810778905
  N   5.12110921082853      1.21096412160259      0.10718627347140
  C   6.27964119770334      1.95887103573887      0.28535043136065
  C   7.56473863924054      1.54353835053021      0.62175092204058
  N   8.35416314091613      2.67843116864180      0.70343273565188
  C   7.60881201926661      3.79301535808666      0.42661551598992
  C   6.31596988748991      3.38685587286858      0.16046095286668
  H   5.47556354983544      4.02773219386500     -0.09715020627823
  H   8.05056678954366      4.78580970844903      0.43153183271230
  H   9.33983257601447      2.67599356107531      0.92054806879393
  H   7.96689065527957      0.56758874105287      0.86418113200492
  H   4.22574439386181      1.69988023260956      0.06693673725084
  H   7.06444760466649     -1.02596065087785     -0.14818429840503
  C   6.06549215733902     -3.64397224009494     -0.39681446727772
  H   5.26368462094904     -4.39493659520994     -0.48335137345919
  C   6.89641165967133     -3.96473393449480      0.85156000490504
  H   7.71494520128977     -3.23918448466169      0.98472196279562
  H   7.34415917701834     -4.96738635124363      0.75995949796370
  H   6.27008520357021     -3.94353915091023      1.75667864467233
  C   6.90143300660177     -3.67829310000229     -1.68214035524094
  H   7.72468184478863     -2.94681791775152     -1.64490804152464
  H   7.34372641293373     -4.67838286558369     -1.81777395394656
  H   6.27990406188526     -3.44948395840765     -2.56146653946495
  H   3.37005715014817     -3.06318733858782     -0.35413318125207
  H   -0.00204478617103      4.81209087464391      0.00059573943336
  H   -7.06382366415163     -1.03142548594945      0.15370570321400
  H   -5.26046772330982     -4.39886560518757      0.49025199608786
  C   -6.89882018009848     -3.68294504476358      1.68864985310637
  H   -6.27750746012985     -3.45327991538867      2.56790559636764
  H   -7.34036385895349     -4.68330920069487      1.82469892983474
  H   -7.72262158122903     -2.95211069288321      1.65105545686813
