71
Coordinates from ORCA-job ./opt_b3lyp_cdz
  C   -0.00837087647467     -6.26935359763070     -0.39365940877740
  H   -0.00845514066739     -6.84262481786200      0.55338011918843
  H   -0.00983620245803     -7.01160410693936     -1.20933425119148
  C   -1.26994009252690     -5.39740128461179     -0.45645781593543
  H   -1.34883393935103     -4.92406653980696     -1.45173556595455
  H   -2.17642089453514     -6.01088862841756     -0.31716922615880
  C   -1.23886675815386     -4.29709428144040      0.61246479300149
  N   -0.00434234951917     -3.51731258677954      0.51761610632298
  C   -0.00274725754593     -2.16126945754497      0.36792935845306
  N   -1.21449806083990     -1.55552889161689      0.30073355905132
  C   -1.22300690658988     -0.23423476339946      0.14034417915211
  N   -2.36380606965364      0.46126232948410      0.05544506988034
  C   -2.39328383703800      1.81618085013239     -0.12207629135268
  C   -3.71266614536540      2.40562931688583     -0.17950862041818
  C   -4.98807733011520      1.70061203215719     -0.14032400150110
  C   -5.98929846950486      2.65687364761353     -0.23054486369686
  N   -5.36729688686960      3.89643156455356     -0.30407183709330
  C   -4.02288765709881      3.77080146825914     -0.27792244915109
  H   -3.37484869232825      4.63822057994789     -0.31473745897026
  H   -5.85991153231841      4.77621921061781     -0.37196979501386
  H   -7.06775187974304      2.56219966479812     -0.21556158205380
  N   -5.10203520953716      0.33422330370384     -0.01120873788786
  C   -6.26285285543780     -0.41205681245809     -0.15327962586643
  N   -6.32603501794188     -1.66378280287613      0.42007847030195
  C   -7.55663755532327     -2.24297769980583      0.15905163379129
  C   -8.28534306098059     -1.34378788141376     -0.58784963819825
  C   -7.47491724391244     -0.18179180971307     -0.79306713034461
  H   -7.72735380097445      0.69311566727318     -1.38410503471699
  H   -9.29305615468720     -1.50138261144406     -0.96627847785762
  H   -7.79436590031327     -3.23929832488627      0.52021673697702
  H   -5.60570643270867     -2.05117999535810      1.01441147048235
  H   -4.19007020827604     -0.13089522357766      0.03518079536895
  C   -1.17284824850809      2.54348676092041     -0.23635948302347
  C   0.00191050878204      1.77946806581875     -0.12384437408859
  N   0.00032765379150      0.43738344371859      0.06014562243661
  C   1.22206507433538     -0.23730657949435      0.13890541437085
  N   1.21042990754265     -1.55857230586084      0.29928120508608
  N   2.36450967594321      0.45531339296986      0.05269511486715
  C   2.39718567497410      1.81015111307634     -0.12482921706370
  C   3.71799499778214      2.39623398493278     -0.18381134322924
  C   4.03160203617907      3.76059357125061     -0.28272063622102
  N   5.37630334358908      3.88276242246394     -0.31046923591399
  C   5.99519503298857      2.64160951378635     -0.23753298739650
  C   4.99161798621710      1.68795260794313     -0.14596095913892
  N   5.10218779484747      0.32129542699293     -0.01668929861283
  C   6.26086601449883     -0.42805041346751     -0.16011593708263
  N   6.32153117507969     -1.67978334244860      0.41350080146764
  C   7.55027033805686     -2.26226177936223      0.15101052165506
  C   8.28034751962071     -1.36516945662565     -0.59707487494354
  C   7.47268591730185     -0.20111854439112     -0.80154803795075
  H   7.72663117200345      0.67297550664038     -1.39314277255575
  H   9.28715182043322     -1.52549164964355     -0.97677506701837
  H   7.78586811249545     -3.25910493552337      0.51213021281385
  H   5.60097321085176     -2.06514303611457      1.00888446913590
  H   4.18907948175386     -0.14144984983830      0.03083846761959
  H   7.07341719022720      2.54415330763951     -0.22377856673380
  H   5.87110181702996      4.76126916797057     -0.37906591264769
  H   3.38574736198892      4.62966481677728     -0.31891738621379
  C   1.17845850975746      2.54053287230460     -0.23771418071481
  C   0.69886287102331      3.89135999988091     -0.45112477306717
  C   -0.69010604794045      3.89310395013493     -0.45032598435226
  H   -1.29790041813785      4.78087732374752     -0.60758796803753
  H   1.30870150584378      4.77760900359725     -0.60908343235816
  C   1.22836292282195     -4.30016930713654      0.61083596760397
  H   2.07553242548340     -3.61488367370200      0.50989935977162
  H   1.27420419747915     -4.76103133462697      1.61821614748544
  C   1.25528002082032     -5.40054476730470     -0.45813192324370
  H   2.16041270689978     -6.01629066589184     -0.32004507787607
  H   1.33403438412210     -4.92740763300908     -1.45351503753412
  H   -2.08445676156702     -3.60970864121418      0.51263344969602
  H   -1.28452781025287     -4.75783812602726      1.61990774041386
