71
Coordinates from ORCA-job ./opt_b3lyp_cdz
  C   -0.08898071660745     -6.25480747276728      0.82016447235104
  H   -0.12165063141550     -6.95444015385849      1.67232174760115
  H   -0.06664800791455     -6.87556178589537     -0.09623430423461
  C   1.18063636618914     -5.39403589522057      0.87723999260200
  H   2.08351941771125     -6.02347058960077      0.79803231589099
  H   1.23451369057983     -4.87065275022670      1.84898756279785
  C   1.19587241347077     -4.35062079304914     -0.24753954739733
  N   -0.03179487289789     -3.55501254103693     -0.23143935911913
  C   -0.02080491193985     -2.19169701725266     -0.17256824708424
  N   1.19573848100185     -1.59659723486981     -0.10416781170836
  C   1.21697371329070     -0.26784914904368     -0.03799794118710
  N   -0.00014933834222      0.42098081648699     -0.05227858692461
  C   0.01052197061129      1.77389936962395      0.01045312981478
  C   -1.15809266603063      2.55524339434140     -0.00767179156941
  C   -0.66691452796904      3.91548048108494      0.08119354678066
  C   0.72131261482054      3.90180745536105      0.14071026227927
  C   1.19119530099416      2.53173257287029      0.10108624786606
  C   2.40376741499795      1.78100147710398      0.12642691908942
  N   2.36368870885854      0.41896423733693      0.04681427605942
  C   3.72510263288985      2.36003396156945      0.23720846679008
  C   4.02872258047111      3.71138503476653      0.45667683842933
  N   5.37181375141857      3.84087961812562      0.50695561295267
  C   6.00030570246766      2.61498928850241      0.32190195784551
  C   5.00393886891586      1.65891518518171      0.15943858330039
  N   5.12243424006852      0.30530784959372     -0.03070949902682
  C   6.28203792642887     -0.43528774156230     -0.22703666222290
  C   7.56905422435718     -0.00496030405665     -0.53641876134321
  N   8.36262881409174     -1.13391958997395     -0.65602380583305
  C   7.61879293344296     -2.26003627467030     -0.42763953034077
  C   6.32253802253629     -1.86713978122958     -0.15640902012149
  H   5.48356493734147     -2.52041782654523      0.07261793952966
  H   8.06387512787814     -3.25064879255871     -0.46632129751639
  H   9.35123544563373     -1.11999109470458     -0.85885636878091
  H   7.97037304247409      0.98074124810833     -0.73757893635159
  H   4.22183622558118     -0.17632351309181     -0.03302418005156
  H   7.07697552699779      2.52673777816173      0.38038203919047
  H   5.85866746425364      4.71226153952479      0.66296866432709
  H   3.37509812063897      4.56356009665070      0.59900279248353
  H   1.33664610385299      4.79660227859085      0.19676559080553
  H   -1.26828788773264      4.82100317069566      0.11011322465325
  C   -2.38231596849062      1.82922484835650     -0.10074799999101
  N   -2.36375608898497      0.46523658554239     -0.14770887982442
  C   -1.22798806488193     -0.24435814805741     -0.12852407741156
  N   -1.22771314568068     -1.57365861557585     -0.18605086970918
  C   -3.69433025250993      2.43676605109985     -0.15527470882451
  C   -4.98402479397749      1.75170426116434     -0.13908705407218
  C   -5.96525263555215      2.73421639988787     -0.21031318029048
  N   -5.31755286300287      3.96186176193153     -0.28394476500295
  C   -3.97662467117825      3.80715917975842     -0.24918897855826
  H   -3.30948194590967      4.65820613417691     -0.31519585114207
  H   -5.79064310440528      4.85143503648477     -0.35823036013830
  H   -7.04327400436434      2.66826052990446     -0.27386337716831
  N   -5.12400825525378      0.38835797909341     -0.07411253009444
  C   -6.29564458819607     -0.34787790009128      0.05675826128388
  C   -7.57286464631794      0.07284782332034      0.41594306857349
  N   -8.38629014356131     -1.04814324786906      0.43051546208293
  C   -7.66444854739656     -2.15951810292812      0.08779540756278
  C   -6.36270703588204     -1.76497317677696     -0.15323441479248
  H   -5.53734822566093     -2.40739337093977     -0.45187917526926
  H   -8.12748057824921     -3.14106760213360      0.03237149173562
  H   -9.37353869754245     -1.03655088993213      0.64002947347007
  H   -7.95454115456953      1.04134526274020      0.71520396730719
  H   -4.23145980793103     -0.10593639171746     -0.11973773560682
  C   -1.27094585231175     -4.32738587919057     -0.32284207379833
  H   -1.29302505923144     -4.83971878714647     -1.30596055302738
  H   -2.11257897014456     -3.62895832998994     -0.28423458243829
  C   -1.34339196709441     -5.37043777988672      0.80009566437957
  H   -2.25144565462894     -5.98286952168823      0.66596299532081
  H   -1.44656792157974     -4.84539023571293      1.76691662732780
  H   2.04666798862453     -3.66805047145360     -0.15867972091194
  H   1.26745236546499     -4.86421664590858     -1.22761094549480
