74
Coordinates from ORCA-job ./opt_b3lyp_cdz
  C   -6.12235499906865     -4.86390567096163      0.00224675303540
  N   -5.38113448875510     -3.61749163252286      0.03190399016199
  C   -5.97814946894239     -2.36137108385319      0.08924903167715
  C   -4.96794628078523     -1.41021582755015      0.09438259056660
  N   -5.05805627337806     -0.03993907882031      0.10938135782644
  C   -6.19677364958905      0.72445146752414      0.32523238427668
  N   -6.18323883029803      2.05074098179303     -0.06229138395250
  C   -7.40723803552111      2.62009566117895      0.25147624442700
  C   -8.19974180896630      1.65137286882412      0.82812639056661
  C   -7.43990322230210      0.44272202800697      0.88085006847204
  H   -7.74505639105483     -0.50234875479615      1.31907754020045
  H   -9.21686921928202      1.79229948927938      1.18701199249346
  H   -7.59612471379889      3.66863296514020      0.03777961709472
  C   -5.08027498925699      2.71300505461317     -0.73558233652817
  H   -5.38924073463689      3.73507630152367     -0.99236304316286
  H   -4.81429829357882      2.18151068416571     -1.66427831384865
  H   -4.17587993863103      2.76963327078545     -0.10621799440090
  H   -4.13567530782793      0.40556049507330      0.11981595908164
  C   -3.70104592359189     -2.13409117447991      0.05500844208977
  C   -4.03681868424906     -3.49855001759568      0.01445886882833
  H   -3.40141489166450     -4.37566279703022     -0.03370543754803
  C   -2.38114396167961     -1.55950029273409      0.05531070307358
  N   -2.34164312424526     -0.18953322568546      0.04411196792981
  C   -1.20580414626784      0.50389913334100      0.03984552259362
  N   -1.19062045869472      1.84540613448044      0.03845061842014
  C   0.02079496541306      2.42656425292992      0.03692581984637
  C   0.03050772854901      3.89921761337456      0.03698279679814
  N   1.06305008785085      4.70030346745134      0.02304667709285
  C   0.51719847132518      5.96950584244738      0.03369768816331
  C   -0.84377444206510      5.87054189975282      0.05363406871962
  O   -1.16876157687297      4.54881458318224      0.05526669735646
  H   -1.66790530598370      6.57644271288584      0.06916789804340
  H   1.13708274134161      6.86293337164392      0.02717417175503
  N   1.23000490119218      1.84527909420365      0.03676396170243
  C   1.24384933614924      0.50556965539482      0.03712887501369
  N   2.37956952101151     -0.18709860999027      0.03815267642215
  C   2.42255102669268     -1.55607847979030      0.04731641559749
  C   3.74390478581083     -2.12474795964706      0.04082163804897
  C   5.00746939100784     -1.39350646834135      0.08590545920709
  N   5.08954186024239     -0.02407809773483      0.11754522540919
  C   6.22172023629031      0.74878468013689      0.33704452282241
  C   7.47848868578780      0.46549091720285      0.86108139908425
  C   8.22078100811590      1.68574001352286      0.83559715872791
  C   7.40469779453588      2.66149633574636      0.30528722696820
  N   6.18278367948772      2.08678246111342     -0.00512768395733
  C   5.05840495822095      2.76007446635530     -0.63344336630109
  H   5.34731464130044      3.79691112158183     -0.85004191323869
  H   4.16285367733268      2.77900195485367      0.00989732631589
  H   4.78669915339093      2.26503430367227     -1.58041948055454
  H   7.57544054156173      3.71899598155803      0.12295758725591
  H   9.24223571968319      1.82902601547286      1.18102746736099
  H   7.80442793206814     -0.48856327219631      1.26316433628698
  H   4.16491461844494      0.41667328989423      0.12287327442852
  C   6.02247505446128     -2.34006009614270      0.07025039854781
  N   5.43159032991861     -3.59857864853136      0.00146921931016
  C   4.08678237043233     -3.48715925829715     -0.01301320913164
  H   3.45585476308769     -4.36699337592604     -0.07144791409224
  C   6.17962350023223     -4.84040342426314     -0.04415423742903
  H   6.80853256338866     -4.94587848945503      0.85471224932889
  H   6.83088707471162     -4.86772909239665     -0.93293604094548
  H   5.48043805990067     -5.68580227790226     -0.09007411419671
  H   7.09961482286307     -2.22803410063462      0.06271014161867
  C   1.19869259995638     -2.29263137690664      0.06424413954641
  C   0.02047126102199     -1.52030358191947      0.04994825205375
  N   0.01869883792258     -0.16829258479200      0.03597489249591
  C   -1.15730937250261     -2.29446826327590      0.06853432966502
  C   -0.67543731657215     -3.65426865824199      0.10427312897014
  C   0.71873214636323     -3.65294809829041      0.10180102291655
  H   1.32861666250538     -4.55267300409467      0.13621887821745
  H   -1.28309683962033     -4.55532934758849      0.14008461229718
  H   -7.05589194517745     -2.25407961943326      0.08333256772303
  H   -6.74558262724690     -4.96480889847048      0.90561052267563
  H   -6.77833832906799     -4.90332916842141     -0.88257628107048
  H   -5.41856047715840     -5.70566249733849     -0.03988530310055
