80
Coordinates from ORCA-job ./opt_b3lyp_cdz
  C   -5.93826633592615     -1.99595256838208      1.80516844752593
  H   -5.27067517014070     -1.12878043507930      1.73036993687692
  H   -5.49784134078174     -2.71458088676684      2.51525571562537
  H   -6.90547691331999     -1.65787790210440      2.21047842134280
  C   -6.13828333665380     -2.67813203061292      0.43723268134314
  N   -6.78603085217230     -1.72193994594447     -0.51441263008235
  C   -6.31887658093426     -0.46367450380490     -0.89535554507314
  C   -7.21246917441649      0.08089781383845     -1.80663547521584
  C   -8.25333065025195     -0.86699156726235     -1.99874834379140
  C   -7.96176238795905     -1.95988617647638     -1.21042861960238
  H   -8.50366016329459     -2.89092663883032     -1.10324835968495
  H   -9.11818951553184     -0.76945972408712     -2.65144909281217
  H   -7.10016413665440      1.05043883307442     -2.28540989157827
  N   -5.13636515734121      0.08293821338525     -0.37688930551478
  C   -4.99513249002697      1.41743904487608     -0.04644655927200
  C   -5.98981045369483      2.35874256976028      0.17347556790879
  N   -5.36536616944873      3.54456156605148      0.53531956276055
  C   -4.02304937664783      3.40790331791443      0.54306445352086
  C   -3.71798557934756      2.08493570841322      0.17859932814611
  C   -2.40137635821024      1.50962722291147      0.05013547269714
  N   -2.36635252136234      0.16830737749941     -0.21527997418158
  C   -1.22748063771911     -0.51118643717480     -0.34727847811257
  N   -1.20811327433031     -1.82868467059608     -0.61180304616953
  C   0.00191112551404     -2.38915003006194     -0.72164379124165
  N   1.21118775374380     -1.82750998813205     -0.60961944491783
  C   1.22878975142990     -0.50999782238582     -0.34504326365853
  N   2.36675777232443      0.17059315338708     -0.21091730041061
  C   2.39999343780059      1.51192132410690      0.05467492402063
  C   3.71580785975946      2.08848287362523      0.18566200445027
  C   4.01893002067216      3.41163872424837      0.55105896927102
  N   5.36112546177937      3.54962294306363      0.54568829360639
  C   5.98736406355447      2.36452642629572      0.18456770013358
  C   4.99399969962945      1.42232299068960     -0.03739053589167
  N   5.13711202314057      0.08807511645128     -0.36809185986795
  C   6.32099428774035     -0.45705131806300     -0.88502543732932
  C   7.21506157046629      0.08862629718094     -1.79517378712967
  C   8.25739409854295     -0.85792174674338     -1.98589072916244
  C   7.96624235115523     -1.95113153234544     -1.19783789617424
  N   6.78929549170958     -1.71468557263913     -0.50339714773555
  C   6.14154486388565     -2.67159960843616      0.44751761070063
  C   4.80070227277546     -3.16308584013755     -0.13411350406953
  H   4.95291914870388     -3.59563609849912     -1.13577863472253
  H   4.37841345045846     -3.94679490469055      0.51608497070068
  H   4.04123830632001     -2.37294203419556     -0.21106681300320
  C   7.05447869537224     -3.89348539894105      0.65034881838563
  H   7.19834011535922     -4.46256761338244     -0.28076309259590
  H   6.57906682079112     -4.56605405307853      1.38006516270057
  H   8.04047612571386     -3.60805351172842      1.04766275294939
  C   5.93954624938413     -1.98966917420360      1.81528543122975
  H   5.27135039709653     -1.12301852223801      1.73978199635713
  H   5.49892279778446     -2.70865299760803      2.52489242580995
  H   6.90606448788978     -1.65086041673129      2.22163375908043
  H   8.50924087824269     -2.88144241436842     -1.08987495786225
  H   9.12295756719133     -0.75933895268545     -2.63749858366049
  H   7.10210652991075      1.05801258286849     -2.27411377970162
  H   4.24025864035289     -0.36649607985435     -0.54812014075854
  H   7.06560835807088      2.28539296293556      0.11633553601819
  H   5.85053481956379      4.40390890738786      0.77466702239535
  H   3.36827829400541      4.23208673849982      0.82904878403695
  C   1.17655479864036      2.23544363317158      0.17803607698414
  C   -0.00066578899981      1.47309846011141      0.04553121469027
  C   -1.17886079847979      2.23431903146653      0.17581703159690
  C   -0.69833172237692      3.57868811413419      0.39216580538029
  C   0.69434174589320      3.57936319601958      0.39341725670462
  H   1.30163259290854      4.47271825159467      0.51653130823915
  H   -1.30668781975469      4.47146258437560      0.51421779986439
  N   0.00020930309867      0.14543048647370     -0.20646795815409
  H   0.00262483382300     -3.46381964373603     -0.93578131938543
  H   -3.37369754250889      4.22913115746301      0.82178267190261
  H   -5.85600774369613      4.39848308060309      0.76301814119418
  H   -7.06786058695392      2.27850660200060      0.10350599132184
  H   -4.23877757677120     -0.37086414838212     -0.55519504717439
  C   -7.05023266191188     -3.90088957463117      0.63929289522125
  H   -6.57496053050210     -4.57284988573231      1.36966007345909
  H   -7.19250541670294     -4.47030843887123     -0.29185536458319
  H   -8.03694744279349     -3.61634225843902      1.03545871546422
  C   -4.79640781894900     -3.16835594874438     -0.14308293617236
  H   -4.03764661041757     -2.37746909852012     -0.21944012785445
  H   -4.94728336530800     -3.60117107896682     -1.14483659995830
  H   -4.37391993730382     -3.95156221268063      0.50759253354632
