75
Coordinates from ORCA-job ./opt_b3lyp_cdz
  C   -6.18150196171469     -4.83157745202703     -0.28773526684240
  N   -5.44243491647751     -3.58853896316080     -0.17811552369690
  C   -6.04252970691527     -2.33609059582162     -0.08283493297573
  C   -5.03395064223635     -1.38562616644220     -0.00312384102748
  N   -5.12398843084490     -0.01890688289850      0.07607915631079
  C   -6.26481148660374      0.74272639052375      0.28961518748523
  N   -6.21297059745331      2.09635033450546      0.01796306857551
  C   -7.44666043686800      2.65589490564822      0.30812929763557
  C   -8.28269179625384      1.65574767650828      0.75544422193729
  C   -7.54136367368072      0.43467121981505      0.74828256314541
  H   -7.88263990429436     -0.53780525967027      1.08857153951700
  H   -9.31710384634806      1.78281110213175      1.06709142172138
  H   -7.61069770056070      3.72155319784531      0.17337153563849
  C   -5.06466892665916      2.80072712829425     -0.52908810028293
  H   -4.75668216263264      2.35767262529949     -1.49057941907709
  H   -5.34472337527864      3.84844466910838     -0.69958371625887
  H   -4.19433024977518      2.78336254741812      0.14775678689137
  H   -4.20151085112287      0.42380489836866      0.12992992422072
  C   -3.76510969163719     -2.10901233282554     -0.03825442336174
  C   -4.09836260202978     -3.47021007302625     -0.14964198135638
  H   -3.46106185113950     -4.34505575211688     -0.21407467919346
  C   -2.44835978476273     -1.53303501640352      0.02630808356300
  N   -2.41685541760451     -0.16586997861228      0.08469840574562
  C   -1.28896947471947      0.53748327879748      0.14239596791790
  N   -1.29404135334200      1.87485180616598      0.19716923651784
  C   -0.09562613862779      2.47302569695395      0.24576008363253
  N   1.12779464892153      1.89491095544269      0.23905673585783
  C   1.16245969643183      0.55654014684999      0.18895791234507
  N   2.30784051028966     -0.12773152228520      0.18148864560236
  C   2.35117664086160     -1.49662327842363      0.14939421293429
  C   3.67143085867616     -2.07744687988279      0.17675414585378
  C   4.94313926211924     -1.37003602582319      0.12174826912056
  C   5.94387938863564     -2.32705627811530      0.18296446337668
  N   5.33659135687694     -3.57652998070010      0.26347302830844
  C   3.99284388223198     -3.44282615812248      0.26250725539607
  H   3.34814882607196     -4.30900287080344      0.35904654629705
  C   6.06452648428538     -4.82527199297840      0.38328680690119
  H   5.35415988510735     -5.66262149344904      0.38017125616907
  H   6.64404820529742     -4.85151789661163      1.32079781887828
  H   6.76024407788861     -4.94750669385636     -0.46238526068595
  H   7.02247926387597     -2.22701171558683      0.15123157267506
  N   5.05796487483247     -0.00226684135667     -0.01960715465523
  C   6.24099347119333      0.72231602639370      0.12099848642919
  N   6.40439911599465      1.88601360536509     -0.60990149353529
  C   7.63586256195730      2.43821365614992     -0.30528335861390
  C   8.26778942328140      1.61171237002671      0.60041695296141
  C   7.38828069021614      0.52268770849230      0.87877525361134
  H   7.55371964525452     -0.29547713575588      1.57401300860047
  H   9.25574934787286      1.77311607065442      1.02610507722349
  H   7.94878270218428      3.37436986992116     -0.76009756999072
  C   5.42945815529298      2.43151125668836     -1.53283681305659
  H   5.93053289322918      3.13284579950114     -2.21441762386305
  H   4.61618753975492      2.96787818662131     -1.01162576143930
  H   4.97722456792516      1.62001073052412     -2.12233874523494
  H   4.15502373008275      0.47016741338571      0.08449698792999
  C   1.13566428658281     -2.24059552195238      0.09614493993443
  C   -0.04864995220426     -1.47717291239270      0.09732834102070
  N   -0.05662662415103     -0.12540835066105      0.14654380726766
  C   -1.21805360823739     -2.25857791678030      0.03399191539512
  C   -0.72515810512427     -3.61530467443400     -0.01197007911061
  C   0.66713805543348     -3.60531715840217      0.02188988612105
  H   1.28332408422627     -4.50019998968274     -0.01867401955940
  H   -1.32692757439162     -4.51956603097616     -0.06590755088341
  C   -0.07791161813005      3.93520413704487      0.32087274255611
  N   1.10995759711238      4.60932082149592      0.43777220430927
  C   0.82352270745790      5.94509565354797      0.49254470157312
  C   -0.55837318201886      6.02113266151810      0.40079768376932
  N   -1.10864066784221      4.77412326821497      0.29590841015145
  H   -1.17586128408209      6.91746466025652      0.40641106410525
  H   1.59448345712813      6.70402184794431      0.59084087629767
  H   2.00926593886023      4.14367319282930      0.48578627264105
  H   -7.11954243913499     -2.22925940704285     -0.11947445790074
  H   -6.80278143741359     -4.83408409722622     -1.19821343833990
  H   -5.47648128881380     -5.67197938626611     -0.33664531601246
  H   -6.83944252181787     -4.96815311797067      0.58581615101486
