40
Coordinates from ORCA-job ./opt_b3lyp_cdz
  N   -6.11575164334173     -3.03401872818597      0.11998192052177
  C   -5.34598867817947     -1.86854962018058      0.06444849060059
  C   -5.87294129571458     -0.54450136173971     -0.17724944145334
  C   -4.81872664299777      0.32357982206635     -0.22531685595179
  N   -3.64211192416845     -0.40288808694124     -0.03945102281478
  C   -3.97685717618464     -1.75530166119217      0.14387693753811
  H   -3.22520197956282     -2.50074859027493      0.36238080875538
  C   -2.37753812758976      0.16147501105837     -0.03990905780335
  N   -2.36600400525127      1.50853745973303     -0.06129137171108
  C   -1.22945049626503      2.20337140763306     -0.03947877902571
  N   -1.20967787729191      3.54420523300201     -0.04504679477258
  C   0.00015025698197      4.11416327799445      0.00216105579492
  N   1.20990917420635      3.54403267126072      0.04889681036060
  C   1.22950698087830      2.20319366827916      0.04246650809479
  N   2.36592487478233      1.50818656914181      0.06355697910090
  C   2.37747618023515      0.16112286788873      0.04078311147312
  N   3.64212513338829     -0.40305075937943      0.04005684705944
  C   3.97709615888165     -1.75580608380388     -0.14034894004899
  C   5.34635162011554     -1.86844450595590     -0.06257267605209
  N   6.11636582448441     -3.03383176000693     -0.11592591710567
  H   5.64400555361629     -3.81268613872222     -0.56919465945443
  H   7.02475576377309     -2.88933177264770     -0.55181931320192
  C   5.87324683992106     -0.54358796915831      0.17485988763813
  C   4.81884375105429      0.32424745710923      0.22241257524903
  H   4.76556438060844      1.39523734647995      0.37583028347053
  H   6.92137377913952     -0.28075600150712      0.30258012266697
  H   3.22539971139198     -2.50245154778669     -0.35438882233560
  C   1.17575946956026     -0.60161240153707      0.01864396123413
  C   -0.00003218188707      0.17732193975130      0.00074133284382
  N   -0.00001509049231      1.52879968349894      0.00147590131560
  C   -1.17592822602709     -0.60136310483797     -0.01885545417705
  C   -0.69495590724819     -1.96415157438192     -0.01663832046885
  C   0.69443282176402     -1.96430990796852      0.01301286575521
  H   1.29899914719331     -2.86633066717557      0.04210348593509
  H   -1.29991844668852     -2.86581942999268     -0.04855546930122
  H   0.00021101472827      5.21007261994390      0.00256604970325
  H   -4.76557216468384      1.39419669167801     -0.38142900293728
  H   -6.92094683291761     -0.28237108981491     -0.30737894195822
  H   -5.64360512172201     -3.81154784884445      0.57575141079960
  H   -7.02458824389061     -2.88864504068315      0.55466427316296
