36
Coordinates from ORCA-job ./opt_b3lyp_cdz
  C   -5.35157975156689     -2.14781576155250      0.00079820996492
  C   -5.88868894836433     -0.81290615115780     -0.00045066716722
  C   -4.83574421156163      0.06038488884208     -0.00089995412561
  N   -3.65184108866770     -0.68734840933966     -0.00007216736128
  C   -3.98673660820966     -2.04432998299563      0.00099848959324
  H   -3.22717935842059     -2.81323595957473      0.00217190456793
  C   -2.37753291798411     -0.12759099955012     -0.00021423135936
  N   -2.36611128834660      1.21610105330306      0.00021332498328
  C   -1.22870845371161      1.91267838092532      0.00029699611526
  N   -1.20987773563585      3.25163429469157      0.00044400644370
  C   0.00000195447048      3.82388788195030      0.00036240760915
  N   1.20988132387752      3.25163362040708      0.00012084536940
  C   1.22871130577609      1.91267767645859      0.00003250922699
  N   2.36611387689344      1.21609970646706     -0.00014209239838
  C   2.37753391813998     -0.12759236737063     -0.00034147811070
  N   3.65184092856192     -0.68735233089854     -0.00004092561372
  C   3.98673319374012     -2.04433182147475      0.00293856620910
  C   5.35157586552719     -2.14782237065513      0.00219316568683
  C   5.88868777370116     -0.81291819789877     -0.00141701249480
  C   4.83574521890739      0.06037492108339     -0.00258894484965
  H   4.78208489415718      1.14210989958034     -0.00506527033397
  H   6.93997713015648     -0.53430070508367     -0.00292480604740
  H   5.91388088292662     -3.07893015788003      0.00418892910086
  H   3.22717456257072     -2.81323103312646      0.00611192410096
  C   1.17757692865875     -0.89218498526454     -0.00084134372730
  C   0.00000048174705     -0.11330138607304     -0.00023709670952
  N   0.00000115914132      1.23648792269381      0.00022224002914
  C   -1.17757633260548     -0.89218464698241     -0.00079099314243
  C   -0.69433808740612     -2.25424180926450     -0.00220133176701
  C   0.69433882842571     -2.25424196268376     -0.00225826635410
  H   1.29381400496622     -3.15989739442523     -0.00374088483253
  H   -1.29381277504934     -3.15989781066894     -0.00345743886874
  H   0.00000226560607      4.91946339923116      0.00048179829872
  H   -4.78208155054305      1.14212219215089     -0.00177226112994
  H   -6.93997801172308     -0.53428387705415     -0.00093249489520
  H   -5.91388675375539     -3.07892418490972      0.00155180808937
