40
Coordinates from ORCA-job ./opt_b3lyp_cdz
  N   -4.93411860412199     -1.12722118043615      0.76338161380754
  C   -4.86422991287759      0.16641579029031      0.27643655449378
  N   -3.62858925921576      0.78491923791582     -0.03117189962680
  C   -3.87962399775826      2.14133827732220     -0.34791453849186
  C   -5.22289739704850      2.35303829019543     -0.24502937271080
  C   -5.84846843884543      1.12294261386035      0.15474928594457
  H   -6.90622773182459      0.95698762763859      0.34419619759558
  H   -5.72875327739385      3.29145331628109     -0.46180977866884
  H   -3.08434153339993      2.76956756268849     -0.72727596377785
  C   -2.37932817164997      0.19124188600362     -0.07508138991909
  N   -2.36497266056118     -1.15173246023815     -0.21238571941123
  C   -1.22663939922497     -1.84592217462337     -0.28058432686712
  N   -1.20999051353746     -3.18169022016648     -0.38413137667238
  C   -0.00008122871928     -3.75238259698708     -0.43458812029857
  N   1.20984932261398     -3.18172602009802     -0.38421971877169
  C   1.22654644863055     -1.84595828316843     -0.28067559022503
  N   2.36490651061468     -1.15180433029779     -0.21254456250187
  C   2.37931559506025      0.19116868834279     -0.07521561597639
  N   3.62858445781150      0.78484733479950     -0.03144964104857
  C   4.86427908008474      0.16639458305855      0.27608170128914
  N   4.93427578291293     -1.12719947520190      0.76312488091663
  H   4.26198950973797     -1.75904113080380      0.32891720557160
  H   5.88408918423131     -1.48709697721458      0.76726055470298
  C   5.84847793714748      1.12294099609781      0.15421974934360
  C   5.22283037733861      2.35299836642701     -0.24555224193299
  C   3.87954837222724      2.14126683873276     -0.34824710434211
  H   3.08420189131055      2.76946703741950     -0.72752749023115
  H   5.72863654493135      3.29141677273252     -0.46243462702204
  H   6.90626189619032      0.95702564483770      0.34356288905857
  C   1.17402852186658      0.94182555125392      0.00677222464116
  C   -0.00000930958016      0.17289811425292     -0.12116885621453
  N   -0.00003519905673     -1.17140463084920     -0.25192300911366
  C   -1.17401378915075      0.94186324715722      0.00684969711243
  C   -0.69497073624832      2.28245641717775      0.25776350113920
  C   0.69504823675268      2.28244722941477      0.25764731700819
  H   1.31398405802095      3.15391858273854      0.45383799685506
  H   -1.31386112451592      3.15393813575820      0.45404682438637
  H   -0.00010057787285     -4.84421088952401     -0.52411513082209
  H   -4.26185090904893     -1.75899867630984      0.32904878526579
  H   -5.88391472213022     -1.48716050137781      0.76758390321508
