76
Coordinates from ORCA-job ./opt_b3lyp_cdz
  N   -5.23995809089747     -1.59827514901960     -0.11672202372743
  C   -5.03522557291445     -0.24277431074410     -0.01456650382229
  C   -3.72335369791798      0.38666809215217      0.08119517435907
  C   -3.95662894604653      1.76191301420522      0.18917998322965
  N   -5.29550917863200      1.99103205925092      0.15704492537624
  C   -5.97684223447986      0.77577808751036      0.01586467038592
  H   -7.05750270605733      0.73426896918696      0.07705352903068
  C   -5.91425097542498      3.26649059844900      0.23908769121654
  C   -5.36069158987505      4.26847797564379      1.05109787619955
  C   -5.96679535539343      5.52446504650298      1.11579642239164
  C   -7.13489321468116      5.78751517842560      0.39317838963191
  C   -7.69153032506934      4.78219664206059     -0.40333489540756
  C   -7.08530122625308      3.52720687631067     -0.48825935423593
  H   -7.50414864746967      2.75487927161298     -1.13493527151557
  H   -8.60167324439950      4.97674557012934     -0.97536237293734
  H   -7.61067659270893      6.76855210214447      0.45404952388466
  H   -5.52970678433324      6.29737912007118      1.75216352873498
  H   -4.47412111513168      4.05437336312967      1.65046291138637
  H   -3.25537075609449      2.58383098029818      0.25941506712338
  C   -2.43936638318550     -0.27710610153433      0.08510185725983
  N   -2.48600988719151     -1.64126901642094      0.13049599136483
  C   -1.38873099685514     -2.39872320530329      0.16318719539143
  N   -0.12493642570579     -1.79657368940268      0.15484557043689
  C   -0.04680345983709     -0.44897510205567      0.09688817316156
  C   -1.17932191741411      0.38869730467579      0.05118535018856
  C   -0.62272017774309      1.71862181296437     -0.02775792628402
  C   0.76777461683271      1.64035656283723     -0.02016538159503
  C   1.17210593503094      0.25655898394606      0.06064408704766
  C   2.35096752269298     -0.54561067856550      0.10178931609774
  C   3.70219176600859     -0.03902684925751      0.07756437763031
  C   4.09741281611505      1.30062775858388     -0.01799884962853
  N   5.45446812714517      1.36337790395426     -0.00962299193568
  C   5.98823836521636      0.07463504931054      0.10143027900949
  C   4.93303118332789     -0.82155371231805      0.14419545692614
  N   4.95914080237882     -2.19264964482349      0.20730764235494
  C   6.07233547960364     -2.99887267010152      0.39606123211385
  C   7.35867793834311     -2.75993363141652      0.86514501330286
  C   8.05291250761135     -4.01137059687907      0.83744568197057
  C   7.18445182834900     -4.96811743101653      0.36084883900397
  N   5.98083626272525     -4.33931813318524      0.09150546405842
  H   5.16514564412427     -4.77840595820985     -0.31440092826022
  H   7.30782686589769     -6.03400837506091      0.19338322321642
  H   9.08108976903156     -4.18396575834388      1.14772379815736
  H   7.74006372528722     -1.81458281834378      1.23666508733970
  H   4.02100491062408     -2.60221611033023      0.23580489295176
  H   7.05489116772009     -0.09318365269300      0.03491507872277
  C   6.22161145415101      2.55763615042599     -0.06589613813856
  C   5.78988314304237      3.63574716713618     -0.85352933304042
  C   6.54125656896942      4.81184572775621     -0.89296809850920
  C   7.73296963692028      4.91699286378787     -0.16874828547195
  C   8.16669379963257      3.83502945522668      0.60365100556796
  C   7.41566894544492      2.65938214481168      0.66342257362365
  H   7.73868205762182      1.82781545393849      1.29136101119975
  H   9.09384141673496      3.90727208866233      1.17687181721726
  H   8.32232580005584      5.83548869330951     -0.20947786923418
  H   6.19898365344231      5.64566313589343     -1.51027363746058
  H   4.88285944079241      3.54120269389080     -1.45324204622586
  H   3.50227956139512      2.20490834902763     -0.03247630778531
  N   2.23711893062409     -1.90707493982973      0.16584058645895
  C   1.06217400115234     -2.53648103942118      0.18745458009903
  N   0.97046986261278     -3.87535102321315      0.23441583703494
  C   -0.27112203406072     -4.37752157651293      0.24237993481878
  N   -1.44646805721497     -3.73938139277787      0.20898432446861
  H   -0.33337805456943     -5.47090577957386      0.28085039026480
  H   1.42485299708517      2.50486380823667     -0.07425066520284
  H   -1.17846667377142      2.65027558212845     -0.10080588593742
  C   -6.47035603770104     -2.23257667930623     -0.26270905272301
  C   -6.92274999088045     -3.43247648641305      0.26237559335082
  C   -8.22761088271853     -3.66168382938536     -0.27552553239510
  C   -8.53776365802029     -2.59922271232701     -1.09755188490005
  N   -7.46195625612218     -1.72837029563996     -1.07962591022628
  H   -7.34157477956953     -0.92757774135164     -1.68461933350940
  H   -9.43196232448839     -2.37225556891114     -1.67117385956130
  H   -8.87647675312573     -4.50758333897798     -0.05948441814427
  H   -6.37538598900216     -4.06002523703198      0.96138879010619
  H   -4.39553866749418     -2.15701350927837      0.01260478582392
