19
Coordinates from ORCA-job ./opt_b3lyp_cdz
  C   0.42648687683272      6.95553432594271     -7.49994405423182
  C   -0.95852534581300      6.84992892520399     -7.60300889671438
  C   -1.69555397034421      6.21876637575089     -6.58975512245643
  C   -3.10747963468761      6.06077076242297     -6.60124140566820
  C   -3.71255895945953      5.42236588007257     -5.54589000330040
  N   -3.05821096605722      4.92287189676111     -4.47654862319113
  C   -1.73938816215925      5.05200531390682     -4.43157244414765
  N   -1.06127415268039      4.56095946821075     -3.37262255308076
  C   0.25725047439622      4.71436627623050     -3.37270818561007
  N   1.02551719151256      5.29807634154708     -4.29129329386283
  C   0.38457391235609      5.80116120155256     -5.36450859878553
  C   1.09507369191982      6.44012159343799     -6.39797629791752
  N   -1.01571629897324      5.70035981903677     -5.47982360383637
  H   0.99230637949387      7.44876427739089     -8.29398618183014
  H   -1.50245763913929      7.24758161688572     -8.45926395924653
  H   -3.67371237613753      6.45002740123657     -7.44667978644389
  H   -4.79980388310960      5.28910398659206     -5.53316760955655
  H   0.78416916599746      4.30668004675995     -2.50133046882408
  H   2.17516369605202      6.50070449105802     -6.27714891129571
