78
Coordinates from ORCA-job ./opt_b3lyp_cdz
  C   7.24736092936398      3.83518573513381      0.19865359207690
  N   5.86648372377218      3.72430872967942     -0.24255283086663
  C   5.22035971518269      2.50672134454625     -0.06573326332588
  C   5.86183602149262      1.21269029081498     -0.05231847610466
  C   4.88853867307391      0.25531446544010      0.14328185886121
  N   4.96858740379108     -1.10596717400904      0.20259703471226
  C   6.07140189181088     -1.89863200801296     -0.11514017178023
  C   7.21834452581046     -1.58022257666194     -0.83503349808092
  N   7.98781778223534     -2.72687227742229     -0.93156244154450
  C   7.35683555846160     -3.75273989078564     -0.27612770427044
  C   6.16637550450498     -3.28111268774019      0.24254426803727
  H   5.43083881799518     -3.85426972322517      0.80267172832248
  H   7.80676923029196     -4.74098681530936     -0.22242466481199
  C   9.30904460855403     -2.78413625894163     -1.52097297088522
  H   9.31362478802400     -2.28306169147411     -2.50220690019476
  H   9.59459000881894     -3.83488959106103     -1.67037138523973
  H   10.06647185807181     -2.30142352487058     -0.87814879953308
  H   7.52477405272880     -0.66381758690028     -1.32592361330378
  H   4.12575624606687     -1.55966678589080      0.55693641463223
  N   3.63195375920586      0.92246404365086      0.23231271634266
  C   3.86645925358665      2.31573781718090      0.10522047041435
  H   3.07418647829080      3.01732533098118      0.31769430134372
  C   2.38757200376609      0.35996432985323      0.38670509562160
  N   2.36094560642994     -0.92959020453219      0.81049329319053
  C   1.22440455277113     -1.59086488834258      1.02360482541204
  N   1.21029004622555     -2.87724088162179      1.40709690524250
  C   0.00018840341832     -3.42340669324558      1.57545221091870
  N   -1.20984627658995     -2.87708953651973      1.40709965468961
  C   -1.22379917226068     -1.59071405843928      1.02359916483856
  N   -2.36025807188641     -0.92929345238867      0.81049884366655
  C   -2.38672641916849      0.36027621647238      0.38674253807960
  N   -3.63104370503123      0.92292773670253      0.23235514180607
  C   -3.86539167019456      2.31624353407131      0.10522925691784
  C   -5.21928372820818      2.50739043018303     -0.06561280155017
  N   -5.86531310602523      3.72511049052372     -0.24205433499430
  C   -7.24614764820436      3.83576459390809      0.19942013449694
  H   -7.67207159682074      4.77544374513023     -0.18490653316094
  H   -7.35550062883135      3.83173355517061      1.30506120126379
  H   -7.84696025121789      3.00961619631618     -0.20611066820225
  C   -5.05765559909241      4.91530548446300     -0.05744245846058
  H   -4.72126096079522      5.05787823094119      0.99250421857548
  H   -4.16240072300519      4.85960328655599     -0.69714998454285
  H   -5.63675660408896      5.80096056706624     -0.35867432518449
  C   -5.86089618493040      1.21341896319525     -0.05227554210457
  C   -4.88770236779132      0.25593062265565      0.14330730277108
  N   -4.96793869747659     -1.10534373955397      0.20258282658046
  C   -6.07110931180028     -1.89767837347638     -0.11483997219504
  C   -7.21745224527663     -1.57928778640457     -0.83564904529058
  N   -7.98697126494882     -2.72589596583010     -0.93271214318968
  C   -7.35699582316128     -3.75151420243632     -0.27587855614252
  C   -6.16678935628284     -3.27996685878671      0.24343753383356
  H   -5.43138534366765     -3.85329507266496      0.80358020263973
  H   -7.80730787712669     -4.73957715324118     -0.22189744490424
  C   -9.31064864055531     -2.78167813888539     -1.51678383237022
  H   -9.58812188751303     -3.83124592177197     -1.68863450303866
  H   -10.06949131110606     -2.31958654916139     -0.86047973992179
  H   -9.32314311346141     -2.25913075005421     -2.48651789337940
  H   -7.52326570936505     -0.66298802880631     -1.32712750789763
  H   -4.12519709688879     -1.55919288072472      0.55693520414942
  H   -6.92089079900850      1.00861095340779     -0.12680052074433
  H   -3.07300432340743      3.01776123381508      0.31751412677902
  C   -1.17459077766288      1.07156104641701      0.13743851989282
  C   0.00042158802761      0.34913791122102      0.42809115002792
  N   0.00034252565688     -0.93878903349025      0.85176246340683
  C   1.17552657095227      1.07140249633745      0.13742361284112
  C   0.69607876335594      2.32506213334838     -0.39621157157601
  C   -0.69497810062491      2.32515728473390     -0.39620564464184
  H   -1.31103837619583      3.13331862440962     -0.77968396330285
  H   1.31225398589095      3.13313100705747     -0.77969237371524
  H   0.00012346543899     -4.47252317002494      1.89198877322213
  H   6.92180813329196      1.00778931121390     -0.12687671352054
  C   5.05899304956372      4.91468314835588     -0.05869277240107
  H   4.16240132696153      4.85710778438558     -0.69631528734364
  H   4.72486588798489      5.05963730031295      0.99166243145913
  H   5.63719390007508      5.79984137499652     -0.36317486562579
  H   7.67327479902823      4.77458984898372     -0.18637529066872
  H   7.35683182409206      3.83196754780322      1.30428664652781
  H   7.84810126510806      3.00872613367581     -0.20634303448094
