80
Coordinates from ORCA-job ./opt_b3lyp_cdz
  C   7.23646958926683      3.95045694901015     -0.28817916555022
  N   5.86211828814854      3.85026642771898      0.17537572074766
  C   5.21602960514060      2.62603344046270      0.03070668255110
  C   5.85733215386285      1.33216623197613      0.05874745056025
  C   4.88346062643792      0.36992797543087     -0.11079161076559
  N   4.96254290770805     -0.99384090441873     -0.13191167243134
  C   6.06183024031821     -1.77763691989340      0.21406749797168
  C   7.20613335197787     -1.43973744581001      0.92931512150411
  N   7.97381833388318     -2.58421640447531      1.06490639177665
  C   7.34525435441589     -3.62834437832915      0.43695232664525
  C   6.15775045994174     -3.17070599370112     -0.10128823437073
  H   5.42383905572233     -3.75944741612348     -0.64721951184050
  H   7.79465438035335     -4.61809919807260      0.41448582262627
  C   9.29665486017995     -2.62266151416653      1.65168887918785
  H   9.31067091259159     -2.06080073734566      2.59914218167480
  H   9.56920100322817     -3.66557778243287      1.86704148930183
  H   10.05860398786325     -2.19126897564573      0.97811388692158
  H   7.51120379881583     -0.50892237703869      1.39320093527901
  H   4.11800513702162     -1.45314531208189     -0.47668578010481
  N   3.62934628181732      1.03265116393752     -0.22332006384180
  C   3.86355445739961      2.42897440812320     -0.13970156582222
  H   3.06885811050675      3.12344037108473     -0.36605642592622
  C   2.38274559256441      0.46497791255361     -0.36751011947796
  N   2.36045420259422     -0.83323493024259     -0.75970194685395
  C   1.22176057857766     -1.50309593079556     -0.96018555039929
  N   1.21532933096174     -2.78978388146828     -1.30636213593632
  C   -0.00136808009933     -3.35436859568681     -1.47135090649600
  N   -0.00174937333512     -4.65253772416432     -1.86187232199548
  H   0.87562868763110     -5.15501504173294     -1.85831647437149
  H   -0.87943607622697     -5.15447691874709     -1.85837941249055
  N   -1.21773690834152     -2.78905472744079     -1.30643691347272
  C   -1.22341584751304     -1.50236285120981     -0.96027123534955
  N   -2.36171680730942     -0.83181061563745     -0.75987712778637
  C   -2.38326123784060      0.46641571113612     -0.36769867360426
  N   -3.62954240761887      1.03481805156041     -0.22358845103647
  C   -3.86291714591519      2.43126850772866     -0.13996374671016
  C   -5.21527729968819      2.62913930524712      0.03041673930574
  N   -5.86064130538348      3.85375485799437      0.17506699318020
  C   -5.04849056604057      5.03471710064802     -0.04527048961031
  H   -4.70930218434131      5.14328157931035     -1.09862148797492
  H   -5.62486042513935      5.93159317026873      0.22702448646921
  H   -4.15446078459015      4.99576963207886      0.59733608646479
  C   -7.23492543169153      3.95475473187264     -0.28851016455545
  H   -7.84243838085002      3.13923019742895      0.12847140307587
  H   -7.66546612455686      4.90399290887078      0.06649045508212
  H   -7.32918102247105      3.92358292975248     -1.39541403787918
  C   -5.85735453863458      1.33565540773700      0.05842905109385
  C   -4.88406134559306      0.37283163232951     -0.11108673669399
  N   -4.96385746088887     -0.99089661888513     -0.13227500986280
  C   -6.06301901468378     -1.77448067608413      0.21437087708169
  C   -7.20846820302011     -1.43563133181287      0.92743079020588
  N   -7.97677602296800     -2.57971832567886      1.06225358858563
  C   -7.34672216614288     -3.62485681674162      0.43755916825285
  C   -6.15832791574011     -3.16794607937529     -0.09934400028342
  H   -5.42439998396905     -3.75698732895759     -0.64489461855410
  H   -7.79597959493200     -4.61468771340184      0.41592163013427
  C   -9.29493510118940     -2.61974101757423      1.65929851747686
  H   -10.05329395537063     -2.14536651972170      1.01132382660921
  H   -9.29292874154872     -2.10048606184691      2.63119548239902
  H   -9.58478573365731     -3.66618168037453      1.82934502053542
  H   -7.51423851727156     -0.50433015624210      1.38985407231218
  H   -4.11946893075487     -1.45056078227334     -0.47695536854278
  H   -6.91738522835281      1.13382688849510      0.14163202339393
  H   -3.06782558606742      3.12526740350248     -0.36637082631372
  C   -1.17338958688352      1.18469236255354     -0.13718767317724
  C   -0.00026024125813      0.45702202090963     -0.41075685772768
  N   -0.00063480498972     -0.84217401331625     -0.80877279112498
  C   1.17328598011439      1.18398051044873     -0.13709391465529
  C   0.69406493730800      2.45411182085581      0.36992213128814
  C   -0.69343898583600      2.45453256364196      0.36986660417700
  H   -1.31089830020552      3.27001857679919      0.73535658341081
  H   1.31199067232648      3.26922235966983      0.73546084349130
  H   6.91722694746886      1.12963045333270      0.14206892654783
  C   5.05067320374256      5.03171061135862     -0.04497658345320
  H   5.62759541509731      5.92824233367606      0.22728309771464
  H   4.71152345126514      5.14044956282392     -1.09832126393919
  H   4.15663426305090      4.99332507121863      0.59765239634911
  H   7.33072018122307      3.91930222927242     -1.39508474312998
  H   7.66759566831791      4.89940793363844      0.06688711712674
  H   7.84347390806502      3.13452600028667      0.12874568559456
