72
Coordinates from ORCA-job ./opt_b3lyp_cdz
  C   7.25917857653474      3.61665400104478     -0.27536012650899
  N   5.88707406123704      3.53458370269453      0.20119224547135
  C   5.23045346785380      2.31533443771362      0.09359041398807
  C   5.86268262500385      1.01622714528027      0.13686136506681
  C   4.87815683132002      0.06012555413818      0.00255578057694
  N   4.95522295323673     -1.30912303233638      0.05340128456197
  C   6.10886720311946     -2.02737310884548      0.36819614234571
  C   6.58882826913552     -3.21157428729793     -0.16762003711061
  C   7.75177628988165     -3.56976848759691      0.58224961572866
  C   7.95276711477310     -2.59558213905889      1.53772373498943
  N   6.94433891034132     -1.65978223593560      1.40110804316574
  H   6.78570545546143     -0.86546453000143      2.00595204190098
  H   8.73019681135865     -2.47388220925114      2.28660042337083
  H   8.38231304511794     -4.44118679582341      0.42103190030881
  H   6.15051849638482     -3.74758698699469     -1.00590076727590
  H   4.14667081842119     -1.80038576280972     -0.32926641472201
  N   3.63027369494403      0.72681975818937     -0.10586409405616
  C   3.87325180051789      2.12402686687331     -0.05225269778234
  H   3.08345760060647      2.81811287812746     -0.29765327019540
  C   2.38460615731580      0.15846326813832     -0.24478459788454
  N   2.36127537785699     -1.14243439705367     -0.62676005401581
  C   1.22321241525724     -1.81009552137006     -0.81947293263444
  N   1.20787331149588     -3.10636587110963     -1.16314542075251
  C   -0.00229195901037     -3.65758072295456     -1.31527878361133
  N   -1.21175661240770     -3.10462451393281     -1.16381127650907
  C   -1.22540250610672     -1.80833661041681     -0.82018144306502
  N   -2.36261148689389     -1.13900800139541     -0.62813967930864
  C   -2.38434174286863      0.16192629033320     -0.24621724202924
  N   -3.62924819692340      0.73209736946787     -0.10824720709791
  C   -3.87010570714055      2.12966404393090     -0.05430442225492
  C   -5.22703265995617      2.32301847277116      0.09130490269366
  N   -5.88177125169117      3.54326023797785      0.19902315091333
  C   -7.25378009427459      3.62751328259261     -0.27741418026040
  H   -7.33607266876920      3.58502020617715     -1.38427296033589
  H   -7.85824531769078      2.81089086243352      0.14133058799183
  H   -7.69507608798243      4.57632394542182      0.06451939595001
  C   -5.07512824664654      4.72783197250439     -0.02505722801302
  H   -4.72151681320802      4.82378238364988     -1.07445793336885
  H   -4.19111299306068      4.70498687921964      0.63203093974363
  H   -5.66303632281193      5.62331514283945      0.22527779026209
  C   -5.86129864850796      1.02490971124357      0.13407784279206
  C   -4.87823520846582      0.06724308488930     -0.00022847634213
  N   -4.95749750527231     -1.30183591983560      0.04969222448537
  C   -6.11109582052524     -2.01872689459586      0.36738376974145
  C   -6.59192072089580     -3.20420742575009     -0.16485061439418
  C   -7.75452897735761     -3.55977007680570      0.58681229321175
  C   -7.95447152473147     -2.58283913011442      1.53969286050750
  N   -6.94574811119348     -1.64780893978004      1.39972043749757
  H   -6.78603852937406     -0.85202455656131      2.00235600249096
  H   -8.73136647591899     -2.45867350675860      2.28871771092275
  H   -8.38555640683272     -4.43135646936389      0.42844432566343
  H   -6.15438122081168     -3.74275819773077     -1.00190243500326
  H   -4.14892668660417     -1.79419036593747     -0.33156062274802
  H   -6.92059830453570      0.81205358106616      0.22204792285817
  H   -3.07921430194181      2.82261538367611     -0.29937185610217
  C   -1.17396485691191      0.88135012831002     -0.02050524799408
  C   0.00014559221215      0.14846240674585     -0.28618172648217
  C   1.17517202070260      0.87963649000376     -0.01979491961566
  C   0.69684767220343      2.15155608294749      0.47059628766596
  C   -0.69405966226632      2.15258717645378      0.47013453801207
  H   -1.31057675961465      2.97406671863918      0.82374829832277
  H   1.31436792773365      2.97212085192342      0.82458149357272
  N   -0.00067670339405     -1.15154444621523     -0.66757536379542
  H   -0.00297461890567     -4.71569927773887     -1.59947191379238
  H   6.92158623857688      0.80169238151239      0.22552915641563
  C   5.08225893885531      4.72033886211698     -0.02321088846001
  H   4.72897285967995      4.81666197195086     -1.07268860407790
  H   5.67148327846976      5.61497383605875      0.22707377022909
  H   4.19809885334154      4.69893758583105      0.63372885668438
  H   7.70204911818274      4.56471724849692      0.06662083577836
  H   7.34128839511231      3.57413775586259     -1.38223291610428
  H   7.86235378865776      2.79900623532600      0.14323448112287
