42
Coordinates from ORCA-job ./opt_b3lyp_cdz
  C   -6.14846071458622     -3.13982948977515      0.00433634731853
  C   -5.35512803246256     -1.86829853818945      0.00162502250898
  C   -5.88412135201362     -0.52318888869492     -0.00255963868780
  C   -4.83384153467805      0.35068197785712     -0.00356924991129
  N   -3.64985442730527     -0.39556924996914     -0.00050052273751
  C   -3.98912382399568     -1.75341410852455      0.00273513885486
  H   -3.23166362975723     -2.52500865588452      0.00689219027880
  C   -2.37824113675598      0.16368183551891     -0.00042932613974
  N   -2.36613803374287      1.50864778355124      0.00112364212666
  C   -1.22904272534603      2.20456216770289      0.00203413728670
  N   -1.21013486251517      3.54415576047113      0.00322278429929
  C   -0.00007224320195      4.11577688954940      0.00399928625440
  N   1.21002114324390      3.54422051118790      0.00363445051085
  C   1.22900107715355      2.20462793432178      0.00242983057294
  N   2.36613378350158      1.50877438937777      0.00183292458359
  C   2.37830985682172      0.16380918059005      0.00020266985160
  N   3.64995381776869     -0.39537250287179      0.00039752250622
  C   3.98929705597235     -1.75320015235113      0.00302946808909
  C   5.35530790478108     -1.86800893838763      0.00232680506005
  C   5.88422836665615     -0.52286833957834     -0.00100166646025
  C   4.83390080944467      0.35094523596326     -0.00191750780187
  H   4.78157760285530      1.43285589799169     -0.00417617382270
  H   6.93644161802171     -0.24475798198233     -0.00250270607856
  C   6.14871042070006     -3.13949621785609      0.00515315913984
  H   5.49364206188996     -4.02406497939317      0.00352138910162
  H   6.80553292139977     -3.20551350309114     -0.87936256729572
  H   6.80023708527024     -3.20496363710623      0.89365922310689
  H   3.23187803371662     -2.52483947284513      0.00622383518602
  C   1.17737156032720     -0.60020379196988     -0.00158922926619
  C   0.00003392634209      0.17855909351358     -0.00002688281444
  N   -0.00000264088731      1.52896480990050      0.00186196373372
  C   -1.17726160109689     -0.60026657644088     -0.00190127703019
  C   -0.69434765394208     -1.96235380378955     -0.00562495680839
  C   0.69453083470535     -1.96231676672356     -0.00544043522469
  H   1.29493487197759     -2.86734758929277     -0.00869790144827
  H   -1.29470316629635     -2.86741605306721     -0.00911122834985
  H   -0.00010175192508      5.21146705205927      0.00502277271093
  H   -4.78157704942804      1.43259453052432     -0.00626240604900
  H   -6.93634938579621     -0.24513725694807     -0.00450387152773
  H   -6.80526010981048     -3.20206982677153      0.88915111060919
  H   -5.49334332564095     -4.02434668383761      0.00977782677146
  H   -6.80000346836554     -3.20916204983904     -0.88385669520809
