19
Coordinates from ORCA-job ./opt_b3lyp_cdz
  C   -3.74493653853468     -0.00011999859749     -0.00046822077678
  C   -2.24616124236682     -0.00040222195764     -0.01721962032527
  N   -1.64564641262439      1.20041415583262     -0.01416461102143
  C   -0.31223620260394      1.21555490770223     -0.00551540472534
  N   0.37018803357529      2.36909542855320     -0.00158862341980
  C   1.69989865148115      2.26611080295023      0.00327576834824
  N   2.45779852645272      1.16640532292434      0.00493716241980
  C   1.80303064329805     -0.00002155805528      0.00230063078176
  N   2.45796916883986     -1.16642404732080      0.00502255461364
  C   1.70026685523074     -2.26619068791642      0.00342685613115
  N   0.37050452940915     -2.36934491510270     -0.00144503396582
  C   -0.31197310341190     -1.21592234461677     -0.00544287525476
  N   -1.64553749049626     -1.20102448244049     -0.01410086331659
  N   0.39543002986294     -0.00015065460220     -0.00246114364091
  H   2.24768439508192     -3.21587319139958      0.00648392668339
  H   2.24721333903637      3.21585383700369      0.00626011641499
  H   -4.13508887837275     -0.91284717069508     -0.46952773629517
  H   -4.08850474145809      0.01219362599514      1.04943819948155
  H   -4.13449833638796      0.90283250645274     -0.48885782335227
