86
Coordinates from ORCA-job ./opt_b3lyp_cdz
  C   -5.03683917939759     -5.32699578369201      0.32605894432025
  N   -5.84654520857383     -4.17621293417541     -0.02367987375731
  C   -5.20603127841547     -2.94311900452647     -0.00496029917424
  C   -5.85026830424076     -1.66223920392857     -0.18145028265184
  C   -4.88163239774501     -0.68803766961412     -0.10612758379488
  N   -4.97840708688305      0.67851475180302     -0.20663746953067
  C   -6.06721224217714      1.35341279245620     -0.76035047486963
  C   -6.97749501540435      1.01744326115319     -1.75405309471069
  C   -7.86578936523023      2.12483660765594     -1.89464068431930
  C   -7.47286080702821      3.09440023135015     -0.99558857604377
  N   -6.38276389893961      2.61526122699542     -0.29034677202608
  C   -5.66224757741517      3.32538662051494      0.74778323809694
  H   -6.29492383007960      4.13784700948585      1.13111633572727
  H   -5.42079974140751      2.64195521361915      1.57594135536412
  H   -4.71827898506126      3.76002806804072      0.37347901594109
  N   -3.62594404197507     -1.32445183230919      0.08654656161934
  C   -3.85536741194815     -2.72295165005199      0.15805006163665
  H   -3.06115984007253     -3.38519263186874      0.46641124898051
  C   -2.38088241194615     -0.73828762449229      0.14363451084113
  N   -2.36122819737426      0.60471613436897      0.34386427589728
  C   -1.22262265535849      1.29978876240121      0.44532479081064
  N   -1.21908185430060      2.62040823382790      0.60266913917072
  C   -0.00863587278798      3.22656914944809      0.68495423541996
  N   -0.01219706042731      4.57830839102195      0.86588226715541
  C   1.21620006716914      5.35086714894910      0.94613548087414
  H   2.07575253044474      4.67592104500937      0.90123704797194
  H   1.24311935157747      5.92191739170486      1.89155808457298
  H   1.27203160121857      6.07315582217663      0.11103455390750
  C   -1.24464578140271      5.34426445373318      0.94737393425391
  H   -1.30526198242117      6.06610265256519      0.11221551678180
  H   -1.27359762120423      5.91532167286442      1.89273069399656
  H   -2.10062043515735      4.66471971960770      0.90352748276912
  N   1.20499128382963      2.62700760421776      0.60112771825138
  C   1.21552558470117      1.30642021873353      0.44377086951706
  N   2.35777214484670      0.61755048091843      0.34084265445851
  C   2.38442291512446     -0.72530424077622      0.14045827811726
  N   3.63257442230302     -1.30472721517094      0.08163752102955
  C   3.86960891821968     -2.70192950271330      0.15281544977567
  C   5.22119956042899     -2.91488320219012     -0.01251708059823
  N   5.86857697447997     -4.14439108983704     -0.03246006063802
  C   5.06601421230346     -5.29961657026910      0.31909009973833
  H   5.64373807087672     -6.21715494344458      0.13253984773009
  H   4.74235032770077     -5.30062261607982      1.38281263003093
  H   4.16299981893857     -5.33094519993534     -0.31136727233348
  C   7.25425566647688     -4.19388444258806      0.40634572379907
  H   7.37173088426029     -4.05628689798490      1.50266999019091
  H   7.68294900175551     -5.17095356365872      0.13465291295387
  H   7.84635361999579     -3.41936134992565     -0.10048637964533
  C   5.85816074154057     -1.63050832120562     -0.19009517940644
  C   4.88445918347764     -0.66152790790515     -0.11312408864987
  N   4.97393809652606      0.70558267065471     -0.21352494516083
  C   6.05729353581402      1.38583299534673     -0.77155119941342
  C   6.96612983524572      1.05402949369676     -1.76795488254919
  C   7.84811263370390      2.16601567308358     -1.91217963351469
  C   7.45286053205026      3.13410155207933     -1.01255799088818
  N   6.36767342513487      2.64958899900288     -0.30344282981263
  C   5.64687572816426      3.35675435978226      0.73642240076671
  H   4.70031788922181      3.78766920030052      0.36437500401925
  H   6.27741475302189      4.17156881534587      1.11827189237398
  H   5.41015179082343      2.67220322729601      1.56500839079536
  H   7.84135464011241      4.12925462015603     -0.81320810369749
  H   8.68141378625932      2.24601487519976     -2.60675418316816
  H   6.97535171474450      0.12632173781556     -2.33275343620993
  H   4.08478405870386      1.18508940459324     -0.04156144567024
  H   6.91052744938607     -1.42821568985903     -0.35046647523710
  H   3.07941587681139     -3.36835041567903      0.46257748526988
  C   1.17714663666871     -1.47268131239457      0.01200183759658
  C   0.00175896302465     -0.71758060682507      0.17893483437057
  C   -1.16972283713322     -1.47907362965177      0.01352606097754
  C   -0.68625281090566     -2.80748533841778     -0.30801744532324
  C   0.70049306241423     -2.80375509849247     -0.30874211503511
  H   1.31863147282126     -3.66156239089817     -0.55659182672162
  H   -1.30002116138615     -3.66861232305711     -0.55521775048577
  N   -0.00174072146573      0.62449020212364      0.38980369827211
  H   -7.86604292163904      4.08729869581225     -0.79420704498985
  H   -8.70175490884537      2.20090820685586     -2.58645441397234
  H   -6.98362819217774      0.09013870396255     -2.31954776424774
  H   -4.09164427609532      1.16277689558674     -0.03561959955058
  H   -6.90399014251290     -1.46562850673712     -0.33998808375938
  C   -7.23095884846060     -4.23360473719742      0.41800874435775
  H   -7.34695740877311     -4.09701549223858      1.51462438450414
  H   -7.82857003044786     -3.46236942003861     -0.08737242340335
  H   -7.65440330773164     -5.21310645450334      0.14693065678370
  H   -5.60983451935932     -6.24769690067663      0.14050943794733
  H   -4.13494427647019     -5.35322066462469     -0.30621916309558
  H   -4.71106364574607     -5.32636453918359      1.38913550881771
