34
Coordinates from ORCA-job ./opt_b3lyp_cdz
  C   -5.80188732428903     -1.01057252099063      0.00055699337925
  C   -5.07263892729556     -2.23686537575538      0.00055181759816
  N   -3.76415129706570     -2.03939505543405      0.00039648525684
  N   -3.62393383887566     -0.68338163348916      0.00050666822426
  C   -4.83930826642338     -0.03098116865102      0.00068925873186
  H   -4.87878107024344      1.05274057866627      0.00079253548341
  C   -2.35659012795319     -0.09456805308062      0.00047061652903
  N   -2.36891776397014      1.24870061161679      0.00057215202763
  C   -1.23148909054791      1.94992252706319      0.00056808926191
  N   -0.00000777561642      1.27250351474983      0.00045315877316
  C   -0.00000964380612     -0.07396978852028      0.00034776713612
  C   -1.17086140555782     -0.85949659186074      0.00035117010698
  C   -0.69440018945811     -2.22548048238433      0.00024707493540
  C   0.69437495131760     -2.22548242508890      0.00015402325659
  C   1.17083997069718     -0.85949985547293      0.00023830920570
  C   2.35657081945616     -0.09457459941024      0.00025497731161
  N   3.62391290016364     -0.68339174237618      0.00015476517574
  N   3.76412647422303     -2.03940556140449      0.00003995122571
  C   5.07261352558278     -2.23687962310971     -0.00010421549990
  C   5.80186543341778     -1.01058889306238      0.00012392464861
  C   4.83928920743691     -0.03099475453726      0.00012335580352
  H   4.87876515068450      1.05272687902463      0.00020216901288
  H   6.87948535278669     -0.87250566642812      0.00017537075953
  H   5.45956236443277     -3.25501265261962     -0.00022210145142
  N   2.36890215540303      1.24869403149025      0.00035350315891
  C   1.23147542843590      1.94991908851674      0.00045445602308
  N   1.21060549269510      3.28842331933080      0.00055823608629
  C   -0.00000419924170      3.86013481146673      0.00065770726385
  N   -1.21061546518392      3.28842668441742      0.00067065670606
  H   -0.00000267797688      4.95564499136498      0.00073761732944
  H   1.34230633914364     -3.09637821950035      0.00005163591965
  H   -1.34233398017594     -3.09637449922482      0.00022607643103
  H   -5.45959070269471     -3.25499731083870      0.00050957120066
  H   -6.87950685300101     -0.87248617756771      0.00056721988841
