93
Coordinates from ORCA-job ./opt_b3lyp_cdz
  C   7.22769627764164      4.57766388700449      0.48109840027108
  N   5.85498577814946      4.51699176593757      0.00552982428872
  C   5.21145960550925      3.28267860164245      0.04064961038193
  C   5.85451849207053      1.99832327008743     -0.10984494990887
  C   4.88287339072032      1.02262825483476     -0.02418400330066
  N   3.62899481000486      1.66900982306538      0.15465578791688
  C   3.86048385587504      3.06751277486624      0.19928628007351
  H   3.06550110543446      3.73658146628341      0.49169811223923
  C   2.38232723140291      1.08858169503423      0.24829781757976
  N   2.36127976449196     -0.23846864372017      0.52526416684516
  C   1.22020388039287     -0.92388476792721      0.66673645054688
  N   1.21266753196760     -2.23189895690559      0.90146713526832
  C   0.00041897765110     -2.82956366298490      1.01944735523419
  N   -1.21180334212425     -2.23192458440847      0.90096855205909
  C   -1.21929198512682     -0.92391064985745      0.66624022569243
  N   0.00047902791797     -0.24921821640850      0.57251500805998
  C   0.00051295989396      1.07905845263905      0.28950166426204
  C   1.17376247858514      1.82662135817841      0.08112391716558
  C   0.69435311202284      3.13664960046386     -0.31331324855723
  C   -0.69305788535292      3.13663651340459     -0.31362298944540
  C   -1.17264830527777      1.82660159535078      0.08063569089210
  C   -2.38129587757965      1.08854817480742      0.24735057297268
  N   -2.36031179132672     -0.23851778574604      0.52431642443249
  N   -3.62791437666271      1.66897050715640      0.15334979007222
  C   -3.85945752411846      3.06753780025253      0.19741210453580
  C   -5.21042506276884      3.28252265780166      0.03858219324619
  N   -5.85408191403551      4.51671075371787      0.00293486989742
  C   -5.04029780430167      5.67117819392093      0.33117720346884
  H   -5.61388540868920      6.59022863317393      0.13837791670129
  H   -4.14379608065370      5.68769822205771     -0.30885968420327
  H   -4.70515335370176      5.68427277087387      1.39140191136715
  C   -7.22702793570692      4.57759176447681      0.47766690093677
  H   -7.65817644175980      5.55417755116274      0.20755901562588
  H   -7.83617514806729      3.80121594174895     -0.00615425556472
  H   -7.31776150718084      4.45093275474687      1.57811491147936
  C   -5.85340990750229      1.99813553122760     -0.11151701520019
  C   -4.88172919151643      1.02248594287591     -0.02557743481825
  N   -4.96452874365723     -0.33786847156830     -0.12843044631968
  C   -6.06038644592056     -1.07967359832398     -0.56652502685548
  C   -7.18461469135267     -0.66881305196174     -1.27556768707067
  N   -7.95868325854431     -1.78876250680536     -1.52838583383470
  C   -7.35417264967981     -2.89032721521700     -0.98032348043082
  C   -6.17617709581133     -2.49375961096254     -0.37644034611151
  H   -5.46261931042565     -3.13632039047858      0.13444048965965
  H   -7.81263968268115     -3.87333826607168     -1.05495539523908
  C   -9.26580651264087     -1.76171624731424     -2.14996983546554
  H   -10.03846316912272     -1.36737293885334     -1.46605116296154
  H   9.23834598083166     -1.14952781793442     -3.06925267534147
  C   9.26432004835669     -1.76232597762699     -2.15393608490742
  N   7.95943948201282     -1.78875320501425     -1.52764728940840
  C   7.35397841070118     -2.89057266122078     -0.98114288195877
  C   6.17595804806335     -2.49393205524306     -0.37731798225783
  C   6.06094373398679     -1.07963852977797     -0.56634480344224
  C   7.18560911333391     -0.66873102364779     -1.27464551938040
  H   7.47218009193080      0.30271668695877     -1.66057606488889
  N   4.96560741964873     -0.33770241021759     -0.12735336301410
  H   4.12344997255093     -0.82894070757008      0.17659461295102
  H   5.46229669535165     -3.13648544908744      0.13341385867506
  H   7.81194187390409     -3.87375800533479     -1.05649108817868
  H   10.03541145569800     -1.34978805648861     -1.47915359889763
  H   9.55401554353179     -2.78513467095850     -2.43322958385726
  H   -9.54831984296560     -2.78151658031307     -2.44731447545601
  H   -9.24662642842340     -1.13236672202899     -3.05400245363804
  H   -7.47052433590073      0.30235762851737     -1.66267593411753
  H   -4.12253682323013     -0.82920271235722      0.17575255039037
  H   -6.91297857867437      1.80567938315317     -0.22028230914068
  H   -3.06456553107322      3.73675598013204      0.48970231699752
  H   -1.31058445338028      3.98084403378233     -0.60663234711400
  H   1.31205194538171      3.98083787329258     -0.60602090729022
  N   0.00038371944082     -4.16773811330472      1.27432981722877
  C   1.23438919857901     -4.94008640345190      1.42699451512239
  H   2.08205679086590     -4.26341965254738      1.28186629049330
  H   1.27577939770553     -5.32765544099546      2.46457758883917
  C   1.26375147826083     -6.11389276832615      0.43929702479729
  H   2.16930932641268     -6.71704166787942      0.62262368721258
  H   1.34374345290273     -5.71300289903432     -0.58728273970932
  C   0.00066098288530     -6.97718160804456      0.56413255015336
  H   0.00088573080318     -7.77600839250365     -0.19635002167276
  H   0.00041203116597     -7.48109356507616      1.54979832079339
  C   -1.26241181326045     -6.11396785817410      0.43862553597122
  H   -2.16803271624083     -6.71717202030412      0.62146291305471
  H   -1.34188242911460     -5.71307854140306     -0.58799512880278
  C   -1.23365611357707     -4.94016005892021      1.42634569058322
  H   -1.27557580073563     -5.32774093570412      2.46390188609560
  H   -2.08128201489977     -4.26354184164759      1.28075913812555
  H   6.91422116506928      1.80603658059206     -0.21790381263817
  C   5.04117363052332      5.67115891311840      0.33503571595930
  H   4.14412823422561      5.68786703083388     -0.30419907027015
  H   5.61437481906144      6.59041701055515      0.14205223787361
  H   4.70709665215399      5.68364867573009      1.39559411274938
  H   7.31784973660622      4.44950349297464      1.58140598474056
  H   7.65856143151457      5.55480623107976      0.21252786562817
  H   7.83748337220896      3.80231896044460     -0.00362640693943
