42
Coordinates from ORCA-job ./opt_b3lyp_cdz
  C   -5.02945536229087     -1.23920252880388     -0.76521727412597
  C   -4.85859706510541      0.17147009846342     -0.29778876790578
  N   -3.63172588421148      0.76744265315384      0.06935479162481
  C   -3.86373999321607      2.11147657073665      0.39613851374731
  C   -5.19776442749421      2.36633941483340      0.24652066885846
  C   -5.81677424300933      1.15198907401764     -0.20200471116212
  H   -6.86849547593069      1.00872528197851     -0.44128169077483
  H   -5.68840065823010      3.31536821850115      0.45024320403507
  H   -3.06102037949889      2.72988771257922      0.77912807443637
  C   -2.37686179265300      0.16573332894885      0.13663285722474
  N   -2.36949633347311     -1.16439270020481      0.31961926834001
  C   -1.23007794616380     -1.85586593802907      0.41433856693092
  N   -1.21030251266161     -3.18591037059995      0.56892107415629
  C   0.00001969598326     -3.75350668754829      0.64197881681773
  N   1.21033343584910     -3.18591622172621      0.56873655534910
  C   1.23009179929448     -1.85587184982124      0.41415113872376
  N   2.36949911629830     -1.16440401455228      0.31925947275559
  C   2.37684311809456      0.16572221641224      0.13627333788298
  N   3.63170068197801      0.76742383653320      0.06880020117572
  C   4.85851031267230      0.17144278408587     -0.29853463687616
  C   5.81670955694787      1.15195478466353     -0.20289967614098
  C   5.19777842214084      2.36630919972472      0.24572309642923
  C   3.86377548234809      2.11145580536530      0.39554908784690
  H   3.06112023532143      2.72987210432632      0.77866487619046
  H   5.68845346672729      3.31533414162075      0.44937017192942
  H   6.86839250816096      1.00868359554397     -0.44234046671141
  C   5.02928482445213     -1.23923141077846     -0.76598896085731
  H   4.82579373000558     -1.97131536397894      0.02828769451094
  H   4.35230815669968     -1.48609791938396     -1.59963887066857
  H   6.06495420362629     -1.36393551201571     -1.11664078369652
  C   1.17452924863066      0.91674982847279      0.02369486016246
  C   -0.00000598604979      0.15346060011304      0.18156460442392
  N   0.00000453207936     -1.18316969094614      0.36105286296125
  C   -1.17456147231773      0.91675542830996      0.02387371104605
  C   -0.69533536762334      2.24631879163815     -0.27983308184158
  C   0.69526299409973      2.24631379153926     -0.27994642936029
  H   1.31349647819076      3.11083824184186     -0.50823772746383
  H   -1.31359969204830      3.11084764538200     -0.50802475262751
  H   0.00002720004687     -4.84092002984722      0.77498967735760
  H   -4.35261048105161     -1.48607393715077     -1.59897268433019
  H   -4.82584671335839     -1.97128884661141      0.02902704413398
  H   -6.06518034125971     -1.36389805678708     -1.11570794440750
