93
Coordinates from ORCA-job ./opt_b3lyp_cdz
  C   -5.03990092209112     -5.73799538369488      0.29161194512555
  N   -5.85002509952282     -4.58568800827881     -0.05203513493449
  C   -5.20839775060580     -3.35300745903405     -0.03147588427490
  C   -5.85176328843583     -2.07112678220279     -0.20389316969737
  C   -4.88199847553886     -1.09803047322470     -0.12827388649276
  N   -4.97791728305488      0.26891700071960     -0.22431095450791
  C   -6.07042468981119      0.94654368089994     -0.76716588447359
  N   -6.38813065919400      2.20236986997330     -0.28270789563942
  C   -7.48110485230296      2.68627785693897     -0.97987102541297
  C   -7.87408105080272      1.72545966533385     -1.88840821511341
  C   -6.98234422873686      0.61911195646350     -1.76221367286876
  H   -6.98776378359325     -0.30240840209378     -2.33714355926571
  H   -8.71215560178971      1.80682344858911     -2.57704576984973
  H   -7.87679979287587      3.67567991535913     -0.76654012809291
  C   -5.66627543509576      2.90298644185099      0.76095726291883
  H   -5.42094521585847      2.21121086950464      1.58096012267924
  H   -6.29978502124472      3.70983908287102      1.15460008908839
  H   -4.72414940619057      3.34339317378389      0.38889265397795
  H   -4.08980724601171      0.75186320593512     -0.05596032376908
  N   -3.62655106754915     -1.73599896643464      0.06015766994848
  C   -3.85725178277702     -3.13437878827406      0.12932434763744
  H   -3.06312296902563     -3.79816983425356      0.43439020020992
  C   -2.38069368970437     -1.15091165982435      0.11583521887438
  N   -2.35969771354378      0.19210308271220      0.31427528734230
  C   -1.22030828244237      0.88672634422462      0.41379964294050
  N   -1.21562930585158      2.20733879476706      0.56807100805127
  C   -0.00439312208224      2.81381323315746      0.64715562212093
  N   1.20879938844028      2.21137929726170      0.56714597395925
  C   1.21775609232201      0.89078317848295      0.41291632517978
  N   2.35937890104686      0.19993213419632      0.31263255655617
  C   2.38469192579306     -1.14300462056748      0.11420414961755
  N   3.63245372876968     -1.72398324024886      0.05775808650002
  C   3.86771723249805     -3.12157418528973      0.12700883133265
  C   5.21938371658743     -3.33590681507190     -0.03517082966068
  N   5.86497897004379     -4.56651641522221     -0.05606741448709
  C   5.05898364096091     -5.72131810824552      0.28892450432823
  H   4.15816972647906     -5.74889761302700     -0.34478852111564
  H   5.63566813123392     -6.63934990331497      0.10144939795978
  H   4.73167958215669     -5.72519698685170      1.35153997257146
  C   7.24781440125550     -4.61974277862133      0.39106784173587
  H   7.35840035585995     -4.48992576396861      1.48909394331242
  H   7.84348007268782     -3.84200974815275     -0.10648206645168
  H   7.67764860843438     -5.59520618752815      0.11535727246940
  C   5.85843726267565     -2.05200288701556     -0.20852300226878
  C   4.88564497341842     -1.08197608699869     -0.13214030511215
  N   4.97692515987003      0.28531292530746     -0.22826363413921
  C   6.06505230891314      0.96670050647476     -0.77529681481548
  C   6.97584320292234      0.64172464955173     -1.77218890782379
  C   7.86192260103543      1.75214282601158     -1.90292075444065
  C   7.46692950355857      2.71270558106723     -0.99500987060520
  N   6.37816948122599      2.22488141180671     -0.29396493238908
  C   5.65571515967600      2.92409653331254      0.75022238470030
  H   4.71071080650928      3.35961879106496      0.37969639643315
  H   6.28655710091881      3.73446287603770      1.14092972467194
  H   5.41549686308845      2.23265043384548      1.57201257253842
  H   7.85856405213106      3.70431856440524     -0.78447156409011
  H   8.69774319969348      1.83617666249321     -2.59397268351369
  H   6.98410045172296     -0.28082423096587     -2.34543230132339
  H   4.08713783838547      0.76499675992469     -0.05925085453637
  H   6.91145140883361     -1.85077796950139     -0.36596070086998
  H   3.07605136302436     -3.78782772064793      0.43312465067140
  C   1.17664145234641     -1.88924050724633     -0.01474741880148
  C   0.00198975835668     -1.13269837981876      0.15080220742749
  N   -0.00016391983186      0.20976901013275      0.35944758459163
  C   -1.17024991313632     -1.89312701365377     -0.01396581353109
  C   -0.68807283011271     -3.22246375789764     -0.33393145353824
  C   0.69866626776092     -3.22018237515124     -0.33433841026840
  H   1.31578094706335     -4.07898568287670     -0.58119759696901
  H   -1.30248977955411     -4.08330296347214     -0.58043097621776
  N   -0.00658960496036      4.16564176197544      0.81630769243015
  C   -1.24107686609780      4.94584567201843      0.91635708935970
  H   -2.08772343943582      4.25956308596457      0.81768713903433
  H   -1.28282017826391      5.40241786786970      1.92541314407683
  C   -1.27294913021593      6.04960821509474     -0.14903720243064
  H   -2.17934448572549      6.66251921955580     -0.00696743457442
  H   -1.35242112492459      5.57984250649537     -1.14597414986354
  C   -0.01152960613327      6.92169241298603     -0.08361337601983
  H   -0.01212135453789      7.49239749735811      0.86484553462058
  H   -0.01307780324535      7.66597648566666     -0.89728265887277
  C   1.25274268940792      6.05382080864588     -0.14998708219800
  H   2.15719205629838      6.66976036717884     -0.00861134363777
  H   1.33301946263162      5.58431263457453     -1.14698082083062
  C   1.22535021305941      4.94998077054261      0.91545198929582
  H   2.07422209541667      4.26653342957511      0.81620938341977
  H   1.26628251073090      5.40671071855059      1.92446923428170
  H   -6.90551034133885     -1.87305048000066     -0.36048419998655
  C   -7.23217653935240     -4.64357534868145      0.39662075330085
  H   -7.65924351404825     -5.62022038951393      0.12078231184347
  H   -7.83085098090922     -3.86740048764117     -0.09974074428820
  H   -7.34192223872568     -4.51480763936388      1.49485614866777
  H   -4.13974411521735     -5.76244622138302     -0.34316190086447
  H   -5.61383743185188     -6.65782095905930      0.10449844305947
  H   -4.71134918779333     -5.74117947969554      1.35384507116861
