40
Coordinates from ORCA-job ./opt_b3lyp_cdz
  O   -5.41588066400889     -3.61533910970220     -0.00337843159816
  N   -6.07087280015379     -2.57490681798327     -0.00190866860416
  O   -7.29568674639613     -2.50190722655868     -0.00137222940025
  C   -5.34002345319639     -1.33070463821788     -0.00064589083057
  C   -5.89948127126705     -0.01294469569367      0.00099939313350
  C   -4.84075082759624      0.85113469907603      0.00142316447946
  N   -3.65339366147472      0.09993294020190      0.00024623595702
  C   -3.96995246077030     -1.24540652176937     -0.00110591966510
  H   -3.23798383100585     -2.03900276892432     -0.00287218759080
  C   -2.36981774244707      0.66359403812321      0.00017021503478
  N   -2.36589887520375      2.00225236090110     -0.00205266632593
  C   -1.22760654034336      2.70241526067665     -0.00265941450063
  N   -1.20895242206306      4.03847547512055     -0.00430036343429
  C   0.00010988937297      4.61376126603001     -0.00445851317833
  N   1.20916017068706      4.03845168820146     -0.00311237166911
  C   1.22778683807927      2.70239105588499     -0.00156559494943
  N   2.36606513896383      2.00220555743274     -0.00022289904977
  C   2.36995290809110      0.66354679572571      0.00164003707780
  N   3.65351443656695      0.09985352927690      0.00221704523142
  C   3.97004180460377     -1.24548498220543     -0.00270595936561
  C   5.34010850222882     -1.33082275785318     -0.00029928152696
  N   6.07093008877705     -2.57503524276628     -0.00437327244959
  O   7.29574393534995     -2.50207377907303     -0.00165085971128
  O   5.41591790602446     -3.61543996449893     -0.01021038963962
  C   5.89959462316212     -0.01309048761459      0.00625737333117
  C   4.84088534996457      0.85101459158264      0.00748947383977
  H   4.78470067659364      1.93275153693966      0.01162571381615
  H   6.95609878781294      0.23490859132911      0.00952887906196
  H   3.23805619305116     -2.03904620803756     -0.00864511838913
  C   1.17702794381827     -0.10582408465859      0.00302649083089
  C   0.00006772873659      0.67501851055215      0.00070694391414
  N   0.00008296021173      2.02272866404075     -0.00154026790576
  C   -1.17690885067085     -0.10580190801307      0.00230367117492
  C   -0.69408028346108     -1.46843373604141      0.00650415860134
  C   0.69417331019666     -1.46844647392596      0.00701904167825
  H   1.29216842935854     -2.37520694966000      0.01080689218108
  H   -1.29209138828829     -2.37518605449298      0.00958272572792
  H   0.00012132357540      5.70880461920081     -0.00581361278737
  H   -4.78454192640337      1.93287760136127      0.00248316975538
  H   -6.95598202297665      0.23508943493269      0.00173514774483
