38
Coordinates from ORCA-job ./opt_b3lyp_cdz
  O   -4.92983526520942     -1.21266168697007      0.33293222982227
  C   -4.86919857024687      0.10519116987831      0.14039302229974
  N   -3.63785521672314      0.80662095985145     -0.02784553550029
  C   -3.94189743188821      2.18056114611924     -0.17691037385010
  C   -5.29618333209904      2.31742993354457     -0.10042722718018
  C   -5.88692713130985      1.02152782233965      0.10940476489556
  H   -6.93949493995499      0.77866956682479      0.21963737860454
  H   -5.83511826958140      3.25659077310576     -0.20581438760886
  H   -3.16650673946689      2.89553125649533     -0.41350018581239
  C   -2.38139902425516      0.24687411120724     -0.02489533337524
  N   -2.35764421445066     -1.10890699750204     -0.07980276327815
  C   -1.22083126641454     -1.81030410811006     -0.10528998539600
  N   -1.20867997594697     -3.14726014907718     -0.13227195523971
  C   -0.00014844623324     -3.72318419442421     -0.14763576308188
  N   1.20843332010321     -3.14739881545058     -0.13188806472849
  C   1.22078938949900     -1.81044125684445     -0.10498934164951
  N   2.35773850154835     -1.10921711963706     -0.07943075022858
  C   2.38138981180917      0.24655031579025     -0.02467698089906
  N   3.63779542810544      0.80653079335068     -0.02736344797385
  C   4.86901279784491      0.10567699565206      0.14322422069652
  C   5.88670538130707      1.02199692854685      0.11021146086350
  C   5.29597799055430      2.31726446854662     -0.10352943314140
  C   3.94170705385331      2.18007002433061     -0.18019708911220
  H   3.16633573021818      2.89398947023294     -0.42019105937080
  H   5.83493258096850      3.25611734298141     -0.21152360967980
  H   6.93923984313096      0.77959806424160      0.22178202283222
  O   4.92946342395924     -1.21156078256092      0.34040343405316
  H   4.01692913104512     -1.56701468239568      0.17584271032215
  C   1.17436273605524      0.99770708469998      0.02909826794269
  C   -0.00001360676909      0.22106378763352     -0.04378277705134
  N   0.00000530791976     -1.13120410001258     -0.10665578473393
  C   -1.17424081427980      0.99796139929599      0.02904442328791
  C   -0.69400655194518      2.35213744723531      0.18526201544909
  C   0.69454878539027      2.35197808385864      0.18537947741531
  H   1.30526373635859      3.23963890226897      0.32195402528080
  H   -1.30423144678915      3.24014496355764      0.32170592636336
  H   -0.00020998801218     -4.81794725317609     -0.17250308804697
  H   -4.01621002239482     -1.56708499642843      0.17185920570990
