42
Coordinates from ORCA-job ./opt_b3lyp_cdz
  O   4.83103449945522      1.44308800064658      0.40059644882113
  C   5.35217632517551      0.23644895520839      0.60870049040657
  O   6.46405302823523      0.09992578862351      1.07563602837010
  C   4.58974135018061     -1.00642664142982      0.22828711935595
  N   3.21824904383357     -1.25816102953300     -0.06536020334249
  C   3.07317080291739     -2.62892144749978     -0.30200609892803
  C   4.29079346156438     -3.23844823827914     -0.16789022123876
  C   5.23046967104321     -2.22612106384377      0.18185022349316
  H   6.29013222378688     -2.33918786258065      0.39101649209022
  H   4.49024819919024     -4.29626202131267     -0.32109081107492
  H   2.11521506920817     -3.02757581190176     -0.61449369372781
  C   2.12032021642365     -0.39872727037531     -0.11514823475801
  N   2.37621450943282      0.88628439460537     -0.43142096329905
  C   1.40797035066382      1.80940105964125     -0.54300201680746
  N   1.67075940603375      3.08697163111207     -0.81790273998460
  C   0.60940635880147      3.90480629347113     -0.88819246104570
  N   -0.68436368658410      3.62236291571108     -0.70463963654746
  C   -0.98082150857933      2.34758308779670     -0.42535569395529
  N   -2.23194754083003      1.93227697177882     -0.19791206037452
  C   -2.49551488472998      0.65366380715471      0.10530907965303
  N   -3.85449326259606      0.39837278952369      0.38657307850536
  C   -4.61367644882561     -0.75498281831315      0.14150509289788
  C   -5.84173331946066     -0.58215286677312      0.76232271409059
  C   -5.84022359995170      0.68882380847817      1.39705331158934
  C   -4.61854932056158      1.27216536801727      1.14070661814310
  H   -4.19550533988427      2.22330093409482      1.44705250259954
  H   -6.64625966070741      1.13546707662710      1.97385563907100
  H   -6.66177624418731     -1.29285477839575      0.70457916779297
  C   -4.25278246344161     -1.76049080279321     -0.86038685548918
  O   -3.32969393626100     -1.69133534258969     -1.64824601687570
  O   -5.11524579603580     -2.80998802599848     -0.83552119245662
  H   -4.83800663204296     -3.38872395370131     -1.56879734490469
  C   -1.48814383268711     -0.32744127825283      0.22959017406771
  C   -0.19213084351087      0.14076419852560     -0.05876977803675
  N   0.07571366803526      1.42278960240979     -0.37068398167604
  C   0.79855371125853     -0.84686509154370      0.12675217989948
  C   0.05782377705717     -2.00363122442152      0.59063925967760
  C   -1.29389603793425     -1.69572386746132      0.64554238152515
  H   -2.07646847388932     -2.37753410009296      0.96841878543282
  H   0.48698225273587     -2.95971460238655      0.87916610675256
  H   0.83747828402772      4.94990001497710     -1.12154045413726
  H   3.94779149493965      1.36747617927563     -0.04964397567465
