18
Coordinates from ORCA-job ./opt_b3lyp_cdz
  N   -3.61957180576259     -0.00001595958926      0.00036835179606
  C   -2.27590987135150     -0.00000809815214      0.00024235664794
  N   -1.68089235564524      1.21308186855303      0.00018153218120
  C   -0.35687387311050      1.21941446796632      0.00005870296963
  N   0.33233650103712      2.37286578943059      0.00000323244565
  C   1.65965459096307      2.26534076415598     -0.00008411124480
  N   2.41804769836682      1.16477377894789     -0.00016147669918
  C   1.76086863844363      0.00001602397328     -0.00011680827417
  N   2.41806158041556     -1.16473394109547     -0.00017449161236
  C   1.65968161292886     -2.26530993413116     -0.00012381727541
  N   0.33236477337394     -2.37285079426686     -0.00000891720971
  C   -0.35685929516958     -1.21940770111913      0.00006326010275
  N   -1.68087789955182     -1.21309088180837      0.00018231920585
  N   0.35398580879040      0.00000761821330      0.00000307772812
  H   2.20913484812371     -3.21417826713066     -0.00016905210051
  H   2.20909654656081      3.21421563505873     -0.00017737125267
  H   -4.11378640186006      0.88246146201952      0.00040275492810
  H   -4.11377648655688     -0.88249892023558      0.00040142397673
