36
Coordinates from ORCA-job ./opt_b3lyp_cdz
  F   -3.26859838299707     -2.58352727069856      0.77296490487193
  C   -4.11276320386866     -1.67243875063864      0.28505753747956
  N   -3.66353493531163     -0.38957452114430     -0.01016846062823
  C   -4.79143930528712      0.35167583825671     -0.40996118623226
  C   -5.88082145837841     -0.47222015401912     -0.37727056064375
  C   -5.45549893941724     -1.77174231486267      0.07711936472969
  H   -6.05893035680297     -2.65786898786699      0.25093206551787
  H   -6.89415338289860     -0.18864749438691     -0.65108110860693
  H   -4.66696780352899      1.39249402901822     -0.68174157569416
  C   -2.37155019338619      0.15132081196372      0.07105447517126
  N   -2.36570431707006      1.49200604897276      0.15895762143456
  C   -1.22891690271407      2.18875994368406      0.21372999477163
  N   -1.20947056742722      3.52551093107651      0.27607777572695
  C   0.00014828574764      4.09747369048860      0.31034012907601
  N   1.20973043735865      3.52546904732288      0.27559912340084
  C   1.22910943199821      2.18871485086624      0.21324064537441
  N   2.36584549907882      1.49192706846140      0.15798586335482
  C   2.37162361670571      0.15123996076115      0.07003344965613
  N   3.66357452166129     -0.38966159028241     -0.01164431473087
  C   4.11281724289040     -1.67270193346937      0.28274455099829
  C   5.45537981923253     -1.77214514344750      0.07374577022108
  C   5.88056383688956     -0.47252536162287     -0.38049043390660
  C   4.79128757354781      0.35155306127563     -0.41207432155090
  H   4.66672965702577      1.39246257349179     -0.68346147668470
  H   6.89373925191163     -0.18900150815325     -0.65493071202429
  H   6.05881570489125     -2.65840578724078      0.24685984873039
  F   3.26890169512343     -2.58379495711480      0.77108687140129
  C   1.17709623898899     -0.61109571844326      0.02307303218872
  C   0.00005065939043      0.16538300524973      0.12620006565509
  N   0.00008380244691      1.50975043676980      0.20889263837779
  C   -1.17706040381231     -0.61105102106857      0.02356847325574
  C   -0.69284505941599     -1.95939887030531     -0.18263442311204
  C   0.69274472576237     -1.95943784726791     -0.18286956447412
  H   1.31057927511895     -2.84092432126439     -0.31640086200565
  H   -1.31077613430159     -2.84085040819470     -0.31594744001600
  H   0.00017852914781      5.19136420843309      0.36868902561647
