42
Coordinates from ORCA-job ./opt_b3lyp_cdz
  F   -6.26652280896486     -1.26811422043977      0.87929707446910
  C   -4.95515142452673     -1.02487428237989      0.56209340881302
  C   -4.83622332265428      0.41602394272039      0.16674905446432
  N   -3.63241653129644      1.06908620548629     -0.14014589387267
  C   -3.91029299984768      2.42096539275309     -0.35458831970825
  C   -5.25567743433763      2.61932611195986     -0.19205925697308
  C   -5.83725016110828      1.35598079151722      0.15052525329379
  H   -6.87965059089630      1.14883154857811      0.37448944948137
  H   -5.77617679137224      3.56604023694806     -0.31512121870702
  H   -3.12595166864074      3.09831359834125     -0.67206053972020
  C   -2.36928123163833      0.48975976132987     -0.27474026541036
  N   -2.36704094732765     -0.81261045355387     -0.59062048125450
  C   -1.22781700099593     -1.49488178073292     -0.74971481831926
  N   -1.20874361095654     -2.80060310912654     -1.03730288647557
  C   0.00118033571327     -3.35999410005716     -1.16563942865382
  N   1.21075705549633     -2.80008548617218     -1.03628947133932
  C   1.22903067465734     -1.49435634048099     -0.74868650419505
  N   2.36782939025242     -0.81159614524861     -0.58864198820733
  C   2.36924565419547      0.49077596741439     -0.27276341498807
  N   3.63201806097471      1.07064537396840     -0.13709677579155
  C   4.83584674095377      0.41810147029603      0.17081184565325
  C   5.83648307736897      1.35848849320560      0.15542894005771
  C   5.25465580373590      2.62158263080116     -0.18764853206822
  C   3.90949402022267      2.42264312453170     -0.35131068016476
  H   3.12512792507019      3.09965468507795     -0.66944115472341
  H   5.77485100410047      3.56852072527715     -0.31027288493411
  H   6.87878334824947      1.15178784756008      0.38027202989708
  C   4.95506170435158     -1.02274767259494      0.56624694148842
  F   6.26626725032392     -1.26542294492775      0.88456595564300
  F   4.20748648740087     -1.26892819142882      1.69559795767677
  H   4.63963218363027     -1.74010717789334     -0.20128683701252
  C   1.17324650078521      1.23311989848448     -0.09935762837448
  C   0.00000524741059      0.48549181377203     -0.32571456187372
  N   0.00041331815294     -0.82844548355765     -0.62696299397916
  C   -1.17374533382123      1.23261818281189     -0.10034239810760
  C   -0.69579370174599      2.53138046718969      0.31785301487550
  C   0.69438894868392      2.53167065992260      0.31845913136983
  H   1.31240861885243      3.37323053182413      0.62166446129283
  H   -1.31442797064711      3.37268151348459      0.62052156170754
  H   0.00150956238776     -4.42847626173799     -1.40583860485701
  F   -4.20843286464359     -1.27072024914993      1.69208409692459
  H   -4.63875781254514     -1.74210540967069     -0.20516380199134
