46
Coordinates from ORCA-job ./opt_b3lyp_cdz
  C   -3.92333179100069     -2.14342497735572      0.31448961157620
  N   -5.18459162046840     -2.43480606257331      0.24624964884460
  C   -5.82689962799657     -1.21610828336583      0.00539869555248
  C   -4.89340529220852     -0.15532041073837     -0.04928828850108
  N   -3.63806336612298     -0.77890115747704      0.13776326109773
  C   -2.37593851370475     -0.19766926811416      0.17155935267541
  N   -2.36786084947865      1.13814185040138      0.29519290376057
  C   -1.22763877697751      1.83233108924598      0.35785847651870
  N   -1.20945734011055      3.16702087105102      0.45043862867664
  C   -0.00002748701237      3.73948855333552      0.49504161233704
  N   1.20942327959502      3.16701604963142      0.45062773869327
  C   1.22762680917249      1.83233851414396      0.35805397230197
  N   2.36787287839101      1.13815131398784      0.29560494699635
  C   2.37596327917015     -0.19765066337952      0.17199861370085
  N   3.63808779740062     -0.77890727694830      0.13828787249650
  C   4.89341146466906     -0.15536491258020     -0.04893818170083
  C   5.82692078414816     -1.21612806696815      0.00599730621541
  N   5.18463000586791     -2.43476628354548      0.24717339824362
  C   3.92336314925044     -2.14338585943895      0.31533882980081
  H   3.13095904042979     -2.85206629637954      0.53487807059464
  C   7.19367745407352     -0.97282833261388     -0.16777777118382
  C   7.59732225239439      0.34247852920066     -0.39460775075149
  C   6.65817083316237      1.39058325573484     -0.44480476274765
  C   5.28930450206118      1.16753732642084     -0.27201359375993
  H   4.56605763712107      1.97856801544891     -0.29181926194974
  H   7.00610411904232      2.41164633747233     -0.61719598280851
  H   8.65744845425579      0.56657507976247     -0.53295256136932
  H   7.90499268516807     -1.79928459980318     -0.12389249475460
  C   1.17547889073978     -0.95733361831513      0.07653805808700
  C   0.00000173154548     -0.18718705666079      0.19640881570051
  C   -1.17543982543003     -0.95736538088881      0.07633916875832
  C   -0.69522422967586     -2.29851673352045     -0.16376790775352
  C   0.69535778747715     -2.29844126999588     -0.16383378370027
  H   1.30143707392998     -3.17994431479357     -0.35610560959307
  H   -1.30127351132201     -3.18004731066339     -0.35601331668062
  N   -0.00000813814480      1.15642153980555      0.32836634152418
  H   -0.00001736796194      4.83189843624704      0.57414403590274
  C   -5.28934162184574      1.16762762447450     -0.27202034448179
  C   -6.65822112982527      1.39068405509943     -0.44471303795142
  C   -7.59735169806859      0.34255357303776     -0.39475373086489
  C   -7.19366565716044     -0.97280243481755     -0.16827276173231
  H   -7.90494821705007     -1.79929640087200     -0.12457391475529
  H   -8.65748639104703      0.56666315673592     -0.53301145071500
  H   -7.00616881127424      2.41178632484833     -0.61684418959765
  H   -4.56611804783312      1.97867998512564     -0.29167580595687
  H   -3.13093285824544     -2.85217402830172      0.53382277665427
