50
Coordinates from ORCA-job ./opt_b3lyp_cdz
  C   6.07660016199691      2.82734494361922     -0.81172950617721
  C   6.22778427848012      1.35912746769967     -0.44961402956064
  O   7.30132959976310      0.77756455460439     -0.44414098239339
  N   5.02940171922722      0.74703999301765     -0.12873170053977
  C   4.89867491756294     -0.57947279132096      0.26121604710185
  N   3.61524860045571     -1.17294255591426      0.43098290140691
  C   3.81740714986369     -2.51940563104689      0.80602711812371
  C   5.15915129508766     -2.75191814972418      0.85563932213696
  C   5.84864266367117     -1.54311440513866      0.50013962388148
  H   6.91545846967014     -1.37528419759622      0.41949097947567
  H   5.62287209841634     -3.69308950204881      1.14241541403852
  H   2.97968773449130     -3.13811039382027      1.09441730655075
  C   2.37125744738137     -0.59334796896208      0.25377808101077
  N   2.35060416886486      0.75811867752196      0.21337368496596
  C   1.21940679390729      1.45639289278497      0.09611497937353
  N   1.20698548645242      2.79534902379840      0.08064847494044
  C   0.00051384429380      3.37057463506286      0.00196357454070
  N   -1.20608489910698      2.79573475298436     -0.07755875568367
  C   -1.21882492851645      1.45680117645849     -0.09498480177222
  N   -2.35019048790535      0.75895397679894     -0.21323075232897
  C   -2.37109348226472     -0.59246242686726     -0.25534763094449
  N   -3.61519968913524     -1.17159047619467     -0.43341545997489
  C   -4.89849871120815     -0.57852075476203     -0.26145667206714
  N   -5.02893363243793      0.74737233083036      0.13072201980834
  C   -6.22712377030179      1.35886902933606      0.45348362601730
  O   -7.30042364896679      0.77684136275242      0.44931089671721
  C   -6.07652663462131      2.82781983905239      0.81281028869181
  H   -5.39322238038450      2.95583772087084      1.66859439281458
  H   -7.06425052550052      3.22929245273983      1.06969553772038
  H   -5.65847265228244      3.39722628748595     -0.03397475911897
  H   -4.16422979709655      1.28851281515977      0.08734193434897
  C   -5.84860480800458     -1.54187828187439     -0.50104190241694
  C   -5.15934313942609     -2.75003602785927     -0.85914112488749
  C   -3.81756236456977     -2.51744716882951     -0.81046887590968
  H   -2.98002781115562     -3.13544045954754     -1.10094660315144
  H   -5.62324267409949     -3.69077274233624     -1.14704936048164
  H   -6.91535046970508     -1.37429320287892     -0.41899696997851
  C   -1.16976827887700     -1.34886599526974     -0.13016712543107
  C   0.00009820139675     -0.57085084418348     -0.00087771964314
  N   0.00022131967863      0.78061754163350      0.00007507270843
  C   1.16976051188455     -1.34932258763096      0.12745769759133
  C   0.69056789766373     -2.71195559704673      0.06742312096295
  C   -0.69093727308997     -2.71169589508937     -0.07188760541707
  H   -1.29797081997541     -3.61122632981954     -0.11022153794130
  H   1.29729131437800     -3.61175155642520      0.10453299523227
  H   0.00063408478403      4.46579601237304      0.00276060610532
  H   4.16449098125281      1.28788106941596     -0.08589215121857
  H   5.63058993273769      3.39429177063665      0.02223801976477
  H   7.06791367399063      3.23577949136951     -1.04248375297974
  H   5.41666413467891      2.94933019617991     -1.68663625321288
