17
Coordinates from ORCA-job ./opt_b3lyp_cdz
  O   -3.61856807574790      0.14829102555264      0.00000352767424
  C   -2.29152781422833      0.09453629802291      0.00004043815371
  N   -1.67783408465735      1.27937372746779     -0.00003006553500
  C   -0.34871524248713      1.24358553078835     -0.00003944180351
  N   0.37505162269367      2.37118609377004     -0.00009632385760
  C   1.69983116399684      2.22350109235758     -0.00009084818293
  N   2.42113379059217      1.09876716738074     -0.00004681379321
  C   1.72809783810456     -0.04378836920937      0.00000633279630
  N   2.34608050150440     -1.23109377167594      0.00006866006836
  C   1.55527824513684     -2.30562871279250      0.00014827968432
  N   0.22180539818368     -2.36743927319003      0.00012710655366
  C   -0.42168261801203     -1.19381861092464      0.00006614115753
  N   -1.75118364866455     -1.13319995664441      0.00007792598804
  N   0.32155498315712      0.00153180818465      0.00001548329702
  H   2.07185231638781     -3.27238847044123      0.00012717559894
  H   2.27836423769866      3.15449224321180     -0.00015024468260
  H   -3.92874634863900     -0.77593056590504      0.00003593889416
