46
Coordinates from ORCA-job ./opt_b3lyp_cdz
  C   -0.69481281117935     -2.33419590690778      0.00069628361826
  C   -1.17225980745761     -0.96992598537684      0.00088045049884
  C   -0.00000214760768     -0.18582614560905      0.00106521843749
  C   1.17225632713165     -0.96992477725128      0.00101865579964
  C   0.69481075372154     -2.33419520972801      0.00079046543101
  H   1.33902168228050     -3.20730651531129      0.00066336476506
  C   2.36454639330144     -0.20488639459390      0.00136929807621
  N   3.62449363154753     -0.79272378969842      0.00142549944819
  N   3.71876495610971     -2.16575588295981      0.00082751665796
  C   4.99791174058190     -2.45214220689891      0.00123486748845
  C   5.81445108521417     -1.27021747153033      0.00216575694369
  C   7.19828252876327     -1.02479492946072      0.00289941502473
  C   7.62927388919787      0.29631026099016      0.00372697952080
  C   6.69867284766298      1.35897463464555      0.00381139618815
  C   5.32257134421724      1.14200314033100      0.00308384646772
  C   4.89286403604791     -0.19554078840529      0.00227390852407
  H   4.60557467796418      1.95831261138451      0.00311105314311
  H   7.06738608930446      2.38748291745602      0.00445565375807
  H   8.69830991915719      0.52016397730988      0.00431138162098
  H   7.91101348765484     -1.85240157078639      0.00281648608090
  H   5.31486854422298     -3.49443192687656      0.00085359489304
  N   2.36653117705291      1.14020118083338      0.00168746169438
  C   1.22903521947304      1.83863889887695      0.00176911677467
  N   1.21036278633660      3.17857252966782      0.00214464246502
  C   -0.00000426381494      3.75059454778560      0.00220241029542
  N   -1.21037070470961      3.17857128920205      0.00197971318674
  C   -1.22904169556651      1.83863763118559      0.00161200238328
  N   -2.36653694007134      1.14019876175948      0.00140308417373
  C   -2.36455073362347     -0.20488883786332      0.00107968149205
  N   -3.62449733014036     -0.79272756002423      0.00096096465997
  N   -3.71876697249092     -2.16575984797701      0.00054332604311
  C   -4.99791349674935     -2.45214753396393      0.00059812235954
  C   -5.81445439013419     -1.27022360821805      0.00107511550392
  C   -4.89286858480130     -0.19554585544339      0.00130528368206
  C   -5.32257756643546      1.14199770828462      0.00176828290938
  C   -6.69867945241016      1.35896778026381      0.00200169780708
  C   -7.62927927223613      0.29630237056444      0.00178066805328
  C   -7.19828628232634     -1.02480247453421      0.00131438275078
  H   -7.91101629608623     -1.85240992512061      0.00113718031527
  H   -8.69831569771875      0.52015499675712      0.00197587066904
  H   -7.06739396393002      2.38747573561470      0.00236332715578
  H   -4.60558179439347      1.95830794486387      0.00192750278047
  H   -5.31486900853885     -3.49443765291399      0.00029841902320
  N   -0.00000286162728      1.16294330131169      0.00143945362866
  H   -0.00000485652527      4.84619497832185      0.00249118255344
  H   -1.33902286946932     -3.20730782075678      0.00049916215337
