56
Coordinates from ORCA-job ./opt_b3lyp_cdz
  C   -5.23424101878105     -3.09633530264471      0.01936908565526
  C   -3.88442046861685     -2.90407257657032      0.15264374056951
  N   -3.62197295335318     -1.53359944707889      0.05277038558730
  C   -4.83596446629746     -0.85354201153334     -0.15481243307384
  C   -5.82979171196841     -1.81171156952303     -0.18366348149621
  H   -6.87648499322279     -1.60464935784870     -0.39418770059303
  C   -4.96538688128047      0.58300658190729     -0.46070051880631
  C   -6.00011058538405      1.32728075623898      0.13237451253328
  C   -6.19475899488785      2.66990959998098     -0.20057100522416
  C   -5.35613325804126      3.29460324677537     -1.12780696257075
  C   -4.32405888348350      2.56292937628585     -1.72563886761053
  C   -4.13241281869582      1.22023852100699     -1.39913973980124
  H   -3.34072537059171      0.65196392624352     -1.89292406152010
  H   -3.66894432181242      3.03966143873088     -2.45911329682356
  H   -5.50493675544147      4.34613208647404     -1.38440150054593
  H   -7.00091751464797      3.23312420067255      0.27599085368242
  C   6.19551936435441      2.66858563110005     -0.20048831655672
  C   5.35703009507702      3.29347437808098     -1.12771629755271
  C   4.32480219433530      2.56203105596790     -1.72556518323331
  C   4.13286943896408      1.21937487417532     -1.39909151715094
  C   4.96570496950223      0.58194869477869     -0.46066154688321
  C   6.00058402441450      1.32599215118789      0.13243203683268
  H   6.64369855516127      0.84667305432785      0.87362140942199
  C   4.83597473389112     -0.85457759526980     -0.15479899745082
  N   3.62183732248892     -1.53437821037619      0.05277035458769
  C   3.88399259591472     -2.90490840217227      0.15263197215158
  C   5.23377198728977     -3.09745780317794      0.01935582244292
  C   5.82959630681352     -1.81295964844833     -0.18366867576044
  H   6.87633331593459     -1.60611843808342     -0.39419255922620
  H   5.74461027167480     -4.05657629483495      0.06300470113640
  H   3.08467766005013     -3.59803957353548      0.39147749889608
  C   2.36934024420112     -0.98572004475087      0.36223407588740
  N   2.37433950710116      0.17480268615030      1.02953167321658
  C   1.23337067147692      0.78179151318508      1.38018523455295
  N   1.21114899779766      1.94870463408963      2.03348613088704
  C   0.00036084157582      2.44392437615453      2.31969229369851
  N   -1.21053402700867      1.94896637524371      2.03348522240224
  C   -1.23300762215367      0.78205779203724      1.38018473809900
  N   -2.37410743437413      0.17531562798540      1.02953041558068
  C   -2.36935828343622     -0.98520765810387      0.36223194190418
  C   -1.17231872043619     -1.65031428256836     -0.00572018462795
  C   -0.00001002149519     -0.99539593946367      0.41845042149730
  C   1.17215715915928     -1.65056762981105     -0.00572011916393
  C   0.69568837729591     -2.78845732138315     -0.75935084889174
  C   -0.69609618362539     -2.78830870978879     -0.75934815439400
  H   -1.32116028806517     -3.51911729643180     -1.26776605677276
  H   1.32059419054058     -3.51939973512859     -1.26777103482669
  N   0.00011675267739      0.18091108629780      1.07305786785076
  H   0.00046356977029      3.39555199337074      2.86221312105822
  H   3.34106208563961      0.65127845561041     -1.89288902801713
  H   3.66979132376830      3.03891589267290     -2.45903291230585
  H   5.50605808027953      4.34497627431676     -1.38429100202988
  H   7.00179561896423      3.23162020906946      0.27608710610263
  H   -6.64333062606087      0.84811256314897      0.87356997662476
  H   -3.08525311258664     -3.59737167861604      0.39149597343226
  H   -5.74528398846874     -4.05534432922253      0.06302700171891
