42
Coordinates from ORCA-job ./opt_b3lyp_cdz
  N   -7.05717673724845     -0.46090580554717     -0.00120585156316
  C   -5.82439798494028     -1.05711116131114      0.00000012826467
  C   -4.85783128433374     -0.06455887829380     -0.00079710331133
  N   -3.64610068803592     -0.77306439190649      0.00035631356244
  C   -4.01584581925518     -2.13582582486671      0.00193011261603
  N   -5.31313218166263     -2.33296664064756      0.00175863195719
  H   -3.27228913733509     -2.92347748481114      0.00358672829349
  C   -2.37399698309373     -0.22362322351498      0.00016002013636
  N   -2.36822708501004      1.12030570354150      0.00026175193198
  C   -1.22864628254049      1.81589944612367      0.00027086932567
  N   -1.20983237203934      3.15480686895078      0.00013525298765
  C   -0.00000196300474      3.72733514773935      0.00004529709688
  N   1.20983163598771      3.15481360144034      0.00001527085268
  C   1.22865307373452      1.81590627609424      0.00017566362207
  N   2.36823780135361      1.12031887534870      0.00012967800842
  C   2.37401497274865     -0.22361001715060      0.00011161418062
  N   3.64612145460540     -0.77304478042339      0.00034455534782
  C   4.85784858241059     -0.06453443624559     -0.00132135292806
  C   5.82441993156207     -1.05708192856343     -0.00020828706334
  N   7.05719571207164     -0.46087179136494     -0.00196353872714
  C   6.85683083856352      0.91316414481347     -0.00418914598458
  C   5.49711012666440      1.20472433509948     -0.00386540136743
  H   5.03989581666101      2.18799772507744     -0.00513246963613
  H   7.70585694214919      1.59136036368487     -0.00576063976295
  H   7.95256774669915     -0.92931852470949     -0.00166626920034
  N   5.31316028421950     -2.33293862068440      0.00229564090055
  C   4.01587304693875     -2.13580356624064      0.00256733365363
  H   3.27232017566016     -2.92345720868789      0.00489045163112
  C   1.17572367279177     -0.99058695108481     -0.00021405687380
  C   0.00000894363915     -0.21106294882800      0.00023762262990
  C   -1.17570141835162     -0.99059357138642     -0.00018985333659
  C   -0.69516164238246     -2.35225481113730     -0.00126828054446
  C   0.69519167468299     -2.35225089649461     -0.00128852552601
  H   1.29707165783399     -3.25691890083666     -0.00241368610578
  H   -1.29703638004013     -3.25692637097929     -0.00231406022830
  N   0.00000526641716      1.13973333154731      0.00042948920458
  H   -0.00000502721517      4.82287947263190     -0.00004681880095
  C   -5.49709890804177      1.20469812590505     -0.00256967040418
  C   -6.85681838762994      0.91313201071056     -0.00276291972443
  H   -7.70584775097971      1.59132511469118     -0.00384370106241
  H   -5.03988908471369      2.18797400328771     -0.00347072804958
  H   -7.95254658784074     -0.92935675687108     -0.00098231040281
