16
Coordinates from ORCA-job ./opt_b3lyp_cdz
  F   -3.59587267372784      0.00002731324088      0.00000545336957
  C   -2.27526250120894      0.00001651073013     -0.00001972381841
  N   -1.72494258639506      1.20287057269420      0.00003714445034
  C   -0.38883917986956      1.21968775554316      0.00003945401115
  N   0.29093769365705      2.36894210625814      0.00009569814184
  C   1.62301039350374      2.26618177642582      0.00009877974923
  N   2.37774054142071      1.16626930429654      0.00004538524155
  C   1.72275499972829     -0.00001597557835     -0.00001447539813
  N   2.37772154711606     -1.16631196788241     -0.00007105467897
  C   1.62297351315906     -2.26621211152054     -0.00013452514045
  N   0.29089908709674     -2.36895074254568     -0.00013655328563
  C   -0.38885895423505     -1.21968528857118     -0.00007370132972
  N   -1.72496218447009     -1.20284641901772     -0.00006989821762
  N   0.31555035474927     -0.00000453377379     -0.00001685764683
  H   2.16946558707854     -3.21604642021474     -0.00017506184245
  H   2.16951797790707      3.21600716283384      0.00013662809739
