42
Coordinates from ORCA-job ./opt_b3lyp_cdz
  N   6.78503301688163      0.93737820934043      0.00081980481552
  C   5.41952495192490      1.17648749133410      0.00072979644297
  C   4.84821101490386     -0.07830382682384      0.00053930133240
  C   5.86936093631635     -1.06662872342568      0.00052065006543
  N   5.32074722422740     -2.35215825601598      0.00033015970102
  C   4.03628463885527     -2.15655472718016      0.00023901297767
  N   3.64180068198856     -0.79330197463455      0.00035362109236
  C   2.37453537737230     -0.25054312298475      0.00029893062698
  C   1.17459375332050     -1.01670139574914      0.00008313829075
  C   -0.00001457321720     -0.23711706214691      0.00009754405365
  C   -1.17461551734721     -1.01671251649345     -0.00013191016570
  C   -0.69569120908068     -2.37829266703402     -0.00031869144700
  C   0.69568230421685     -2.37828608334163     -0.00019275252718
  H   1.29864909266999     -3.28252846457754     -0.00030378362315
  H   -1.29864944560893     -3.28254074586174     -0.00056556006229
  C   -2.37456438210310     -0.25056559766948     -0.00013346943499
  N   -3.64182458427551     -0.79333634125305     -0.00028997674131
  C   -4.84824162063509     -0.07834951448499     -0.00047279467054
  C   -5.86938226109305     -1.06668399412966     -0.00054039743896
  N   -5.32075647278022     -2.35220839575928     -0.00036053556168
  C   -4.03629571652513     -2.15659279508999     -0.00021560245864
  H   -3.29193415071398     -2.94592359954769     -0.00000434536892
  C   -7.09053318000142     -0.40909856023615     -0.00076149457120
  N   -6.78507314620302      0.93731437360242     -0.00082990280419
  C   -5.41956733786232      1.17643645482970     -0.00064474126965
  H   -4.99656192448436      2.17341573935421     -0.00062284855859
  H   -7.47946654318043      1.67227255453923     -0.00096064197128
  H   -8.11663547255109     -0.76210936701999     -0.00088293362804
  N   -2.36827866360157      1.09725999278206      0.00000194801499
  C   -1.22855834507364      1.79094911440370      0.00019015586066
  N   -1.21013465454397      3.13127022956504      0.00032147407857
  C   -0.00003327242093      3.70278269180481      0.00051360244368
  N   1.21007354784173      3.13128170640765      0.00058326785164
  C   1.22851001223359      1.79096075825225      0.00044336596289
  N   2.36823692939764      1.09728241986390      0.00046935128137
  N   -0.00002097309280      1.11576055113861      0.00026087751496
  H   -0.00003846530406      4.79854282496745      0.00062707415756
  H   3.29193057958905     -2.94589260857489      0.00009436863922
  C   7.09050568900699     -0.40903183630119      0.00070534202069
  H   8.11661127742173     -0.76203303002290      0.00076258571400
  H   4.99651029459913      2.17346284138584      0.00079992155129
  H   7.47941949253210      1.67234291608720      0.00095630391299
