56
Coordinates from ORCA-job ./opt_b3lyp_cdz
  C   4.82784359359613      1.54859341557356      0.26276024941012
  N   3.64328444748643      0.81839756426464      0.12372042304658
  C   3.96437885756972     -0.53565086246843      0.04220917307726
  C   5.33348840608958     -0.67149290553362      0.12974656816423
  C   5.86933093308808      0.66544321379670      0.27304860977081
  H   6.91593902899703      0.93117008111807      0.39925743688944
  C   6.09806659894350     -1.92808867639601      0.06931476621955
  C   7.44210884701695     -1.93303554070267     -0.35087144587717
  C   8.16953016011301     -3.12306287520975     -0.41844769847708
  C   7.57093711242020     -4.33745433249736     -0.06963190901577
  C   6.23699598650188     -4.34849928717580      0.35253622193692
  C   5.51181233384968     -3.15880523004643      0.42604542565729
  H   4.48106582944338     -3.17860250094745      0.78792191855491
  H   5.76096441886467     -5.28993986109613      0.63797637395756
  H   8.14030780499532     -5.26835934104209     -0.12203333187305
  H   9.21014031423106     -3.10123790806102     -0.75153001478990
  H   7.91716828775722     -0.99537526429980     -0.64738971596218
  H   3.20282597728891     -1.27790720044882     -0.15658530473466
  C   2.37537846328886      1.38801251152785      0.06350197971851
  N   2.37139906170339      2.72525196671474     -0.06816724673556
  C   1.23458496986769      3.41910803431913     -0.15437441523885
  N   1.21681533094012      4.75329109389234     -0.26633460898546
  C   0.00769457331349      5.32277790768779     -0.33913332413231
  N   -1.20309033393504      4.75302958679984     -0.30906606810916
  C   -1.22433062817422      3.41883562284232     -0.19729919695840
  N   -2.36306293654453      2.72470648350726     -0.14984176292730
  C   -2.37252104644293      1.38743157664950     -0.01804382070120
  N   -3.64296179129161      0.82010368511092     -0.00333729425064
  C   -3.96401277968111     -0.53425839694910     -0.07309427738829
  C   -5.33484467674037     -0.66792659172836     -0.02567200734460
  C   -5.87265871354564      0.67171382362889      0.08504070178576
  C   -4.83075841222324      1.55404541433490      0.08415555234685
  H   -4.78793484164814      2.63540463658264      0.13212599716663
  H   -6.92441649554355      0.94315780733941      0.12989437573222
  C   -6.09983762880321     -1.92485083186210     -0.08131983697567
  C   -7.39377089382209     -2.00325805348568      0.46872717201477
  C   -8.12169840629495     -3.19423638777685      0.42721013692117
  C   -7.57374257994824     -4.33651144578682     -0.16394109396046
  C   -6.29031388026121     -4.27358177395490     -0.71775357853567
  C   -5.56483746456665     -3.08238760555225     -0.68116677640721
  H   -4.57691030520264     -3.04104553058639     -1.14603058241771
  H   -5.85506321275127     -5.15666282075893     -1.19223014837476
  H   -8.14348817299699     -5.26806792900832     -0.19702501014194
  H   -9.12251481267403     -3.23056588494291      0.86464254120362
  H   -7.82758960303229     -1.12541950221895      0.95248736231038
  H   -3.19334522301595     -1.28708370101403     -0.16516525131358
  C   -1.17553605577011      0.62951032577005      0.09938110330759
  C   0.00165116260856      1.40163621304957      0.00700517775262
  N   0.00436545980871      2.74402079125877     -0.13288302796488
  C   1.17533940036698      0.63043021242896      0.13938147647989
  C   0.69188387950299     -0.71424335546331      0.35375031314493
  C   -0.69766239698566     -0.71497719122469      0.32991777215538
  H   -1.30603599371041     -1.59955348764009      0.49717124725764
  H   1.29673069674118     -1.59724625598422      0.54054384723132
  H   0.00924836264754      6.41425222298491     -0.43370808805125
  H   4.78285772526376      2.62718240558065      0.35361689243076
