44
Coordinates from ORCA-job ./opt_b3lyp_cdz
  C   -0.69500639624538     -2.31168000421730      0.16206966741822
  C   -1.17551339120272     -0.96602500917573     -0.05207609264879
  C   -0.00013432895433     -0.19335115915647     -0.15873730935433
  C   1.17535512199656     -0.96600450876383     -0.05327306525361
  C   0.69509666532825     -2.31167177215700      0.16135754064851
  H   1.29980543592853     -3.19799890243441      0.33439638986471
  C   2.37389432264005     -0.20397688683525     -0.13995898958449
  N   2.36712858076995      1.13302500524910     -0.24673868874935
  C   1.22681415465264      1.82861299130528     -0.29926821671049
  N   1.20897233089704      3.16368343816933     -0.37690051651105
  C   -0.00024191381073      3.73746238730749     -0.41381324106904
  N   -1.20941233612974      3.16371041768697     -0.37560726448480
  C   -1.22716425099426      1.82860857426557     -0.29798377165152
  N   -2.36743535551306      1.13305501133526     -0.24431642058573
  C   -2.37411643335266     -0.20396884496041     -0.13764463074470
  N   -3.63986238159673     -0.77976799214616     -0.11104076498759
  C   -4.88559371491146     -0.14454192847994      0.05206981333267
  C   -5.83749717020321     -1.19285708905083      0.00212840572985
  N   -5.20729175409441     -2.42284016353606     -0.21229197944068
  C   -3.94354704565789     -2.14433844935521     -0.27092054886198
  H   -3.15622508227998     -2.86554720420242     -0.46677377714609
  N   -7.15411716801132     -1.02979207171814      0.13534944895778
  C   -7.54871102153229      0.23459484866245      0.32693068824532
  C   -6.68178153410011      1.34174400356486      0.38926839495596
  C   -5.30214128631465      1.17230282899018      0.24816106793345
  H   -4.59994702483344      2.00228994273805      0.27414210081615
  H   -7.09604384118200      2.34012335758108      0.54295961207318
  H   -8.62748900429791      0.38700351949780      0.43708335343311
  N   -0.00017449386565      1.15157756652006     -0.27411050533258
  H   -0.00026568652721      4.83059357070569     -0.48026386897904
  N   3.63965675629716     -0.77982694031822     -0.11429637686938
  C   4.88565713017271     -0.14452429992762      0.04637709460985
  C   5.83759489060260     -1.19270026686385     -0.00589919728857
  N   5.20707580140635     -2.42267123449254     -0.21945715674817
  C   3.94319329718420     -2.14431444350887     -0.27539940325790
  H   3.15554727428585     -2.86562053460564     -0.46956165046204
  N   7.15444604614425     -1.02950358217925      0.12474970327275
  C   7.54925882515472      0.23486103819580      0.31609202413163
  C   6.68232179188834      1.34185673297172      0.38066154301687
  C   5.30241329214709      1.17228811333344      0.24225131513398
  H   4.60016076153560      2.00216413718514      0.26995160178843
  H   7.09669447478946      2.34024726048020      0.53398210926809
  H   8.62824523285187      0.38729941954519      0.42413810956699
  H   -1.29958481736189     -3.19794391330578      0.33588859322457
