44
Coordinates from ORCA-job ./opt_b3lyp_cdz
  C   -0.68793561323737     -2.34335477829428      0.14381217412638
  C   -1.17336021763661     -0.99448240592273     -0.03788611014477
  C   0.00068466499676     -0.21780990249168     -0.13643326345206
  C   1.17860434101648     -0.99005439107290     -0.05217482026041
  C   0.70201308504593     -2.34034764161366      0.13765499519972
  H   1.30830416313413     -3.23001212699612      0.28573375710867
  C   2.37501455292980     -0.22466372321231     -0.13492693885152
  N   2.36651587645327      1.11203037877546     -0.22740406842549
  C   1.22493070515839      1.80700923227753     -0.26590046578922
  N   -0.00104684235786      1.12776747656437     -0.23732101833338
  C   -1.22891954340093      1.80335532436462     -0.25359907149789
  N   -2.36750629144549      1.10499324019901     -0.20076277588959
  C   -2.37324672772103     -0.23165124996801     -0.10621140946551
  N   -3.64148542132492     -0.80665803296549     -0.07617635183779
  C   -4.88733239581924     -0.16201948129583      0.05913349986118
  C   -5.83407687814108     -1.20711071462510      0.02780821265501
  N   -5.21170894694182     -2.44650403968025     -0.14240965616532
  C   -3.94550549711649     -2.17658362174330     -0.19761335608702
  H   -3.16085203066652     -2.90828988153788     -0.35840237370649
  C   -7.19280455903017     -0.89914842712983      0.15847234668945
  N   -7.61260174581024      0.35893084383137      0.31079496307235
  C   -6.68655562577860      1.33965558419300      0.33557658778256
  C   -5.30440816095360      1.16168546080388      0.21551635453456
  H   -4.60964901735191      1.99698099157711      0.23123668437448
  H   -7.08026096370237      2.35393938242438      0.45792081502120
  H   -7.94785376684891     -1.69145770277071      0.13848315398501
  N   -1.21353929883036      3.13843859710075     -0.32333437057317
  C   -0.00549384603025      3.71472911216429     -0.36145264958486
  N   1.20456462875582      3.14206563824127     -0.33364965689691
  H   -0.00738593985469      4.80823573024521     -0.41994454346257
  N   3.64340536815084     -0.80041962418964     -0.11829200867467
  C   3.94745170924089     -2.16425441811210     -0.29392260817119
  N   5.21315413640260     -2.43723633698338     -0.23752721391088
  C   5.83412117581641     -1.20666224729093     -0.00857030440459
  C   4.88739894414055     -0.16294043362493      0.05453907379351
  C   5.30177084544659      1.15314953680356      0.27011947271423
  C   6.68205805770494      1.32550318691202      0.41562008062348
  N   7.60831347207825      0.34591074910618      0.36259097668050
  C   7.19104720550035     -0.90462054271624      0.15254327629394
  H   7.94669411548830     -1.69545819354384      0.10961531067908
  H   7.07434986919806      2.33368486684569      0.58416240481393
  H   4.60686489592882      1.98786278356810      0.30707438143396
  H   3.16301202110477     -2.88653573577958     -0.49589762941887
  H   -1.28689622109136     -3.23683526323661      0.29794893626075
