46
Coordinates from ORCA-job ./opt_b3lyp_cdz
  F   -8.07253569979386     -1.82490789121210      0.12903120634976
  C   -7.17836698659823     -0.82374412242387      0.17703292531562
  C   -5.81726908352353     -1.09477024636655     -0.00431563572135
  N   -5.18230190978463     -2.31153217528415     -0.24837723812046
  C   -3.92155204133587     -2.01748109390581     -0.31946589024183
  N   -3.63811789602904     -0.65339351892342     -0.14075890188655
  C   -4.89115690094265     -0.02745748786163      0.05131567704086
  C   -5.28132505847849      1.29754132710023      0.27722962711782
  C   -6.64853708877417      1.52143016211782      0.45431832625244
  C   -7.59444849333061      0.48040843171766      0.40706864328497
  H   -8.65870480254832      0.67734640457161      0.54526943202335
  H   -6.99831264429603      2.54098694040770      0.62908977897760
  H   -4.55692200987300      2.10666418221778      0.29440242053889
  C   -2.37484766220718     -0.07028672435245     -0.17644800153437
  N   -2.36776519202257      1.26429633388805     -0.30379884973400
  C   -1.22740073019826      1.95891751849814     -0.36802952679810
  N   -0.00001299717350      1.28258391244319     -0.33641868083764
  C   -0.00000245999285     -0.06033651223430     -0.20133051132135
  C   1.17545465453727     -0.83048986019051     -0.07971466506390
  C   0.69519637464104     -2.17115050557402      0.16366979174096
  C   -0.69520704536911     -2.17113992384014      0.16372910319950
  C   -1.17545700996040     -0.83047550150377     -0.07962709342823
  H   -1.30106513980881     -3.05241086189536      0.35775265076461
  H   1.30102399824906     -3.05246038458521      0.35760478407867
  C   2.37484915085749     -0.07030234818278     -0.17662501161916
  N   3.63813975156089     -0.65337372274901     -0.14101707076567
  C   4.89120488552054     -0.02734593644326      0.05063973341702
  C   5.81732893008290     -1.09465907663472     -0.00475212320505
  N   5.18233897611527     -2.31152758392140     -0.24823396201313
  C   3.92157540955959     -2.01752889796249     -0.31923204631056
  H   3.13004565851802     -2.72594814300078     -0.54179879010985
  C   7.17846068271728     -0.82355526162085      0.17623787862713
  F   8.07262303216642     -1.82473304091257      0.12844722096375
  C   7.59457188968545      0.48068912126050      0.40569810620629
  C   6.64865365204325      1.52171147079617      0.45272492056167
  C   5.28140900942769      1.29774564438359      0.27597347111682
  H   4.55700189703754      2.10686391782951      0.29300346816630
  H   6.99843448614144      2.54134297044569      0.62705166729625
  H   8.65884930523395      0.67770072755713      0.54363046752804
  N   2.36773885433224      1.26427564508244     -0.30403166767285
  C   1.22737853102939      1.95890813283442     -0.36816203846272
  N   1.20927933935250      3.29288351750538     -0.46412126190823
  C   -0.00001185449433      3.86579583540635     -0.51002344943203
  N   -1.20930116573421      3.29289678655262     -0.46397618145002
  H   -0.00001023915842      4.95791064149214     -0.59191513943053
  H   -3.13004392168103     -2.72578330462718     -0.54250076890079
