50
Coordinates from ORCA-job ./opt_b3lyp_cdz
  N   4.67120706971533      1.98500211789361      0.93139628114115
  C   5.44893334756567      0.89648607991477      0.57760905709108
  C   6.85312619906945      0.93944060689891      0.72623551398148
  C   7.68529117308576     -0.16016348152199      0.48607720732211
  C   7.16538205320178     -1.38538724919499      0.07201572317007
  C   5.78060896763650     -1.45641726592300     -0.09936942280995
  N   5.04094702998782     -2.58140304802234     -0.47593273096098
  C   3.80603890945299     -2.20081326133029     -0.45983273913486
  N   3.62129332824079     -0.85057936616686     -0.10457504121303
  C   4.93223756519076     -0.34270792566584      0.12365725859298
  C   2.37978217026573     -0.23498017252668     -0.17331828679380
  N   2.36644731479010      1.08421719090985     -0.44917157842078
  C   1.22529063509500      1.76878030635416     -0.58021906288620
  N   0.00002317600178      1.09899951467310     -0.49516998333345
  C   0.00006448209061     -0.22242149869312     -0.21469108439646
  C   -1.17335314509175     -0.96846627313235      0.00662250445815
  C   -0.69528605763759     -2.26667285608149      0.42607325372618
  C   0.69551175917289     -2.26661304107127      0.42615798569885
  C   1.17351959905498     -0.96836163329825      0.00677696918715
  H   1.31162898588244     -3.10926323165952      0.73106844762293
  H   -1.31136827964080     -3.10937655894256      0.73090713734311
  C   -2.37965586565815     -0.23519171459306     -0.17363615441357
  N   -3.62112581281854     -0.85088604342010     -0.10503178992236
  C   -4.93212634868791     -0.34308935755676      0.12301709114830
  C   -5.78040109444794     -1.45686351768124     -0.10004720605464
  N   -5.04062493028450     -2.58181411555124     -0.47649341561593
  C   -3.80574224881308     -2.20114213540805     -0.46027786719673
  H   -2.95502980152108     -2.81119712790119     -0.75166134551427
  C   -7.16519656392828     -1.38591234602613      0.07119077286386
  C   -7.68522565518639     -0.16069958293581      0.48513849831024
  C   -6.85315518632326      0.93897318406343      0.72531935005986
  C   -5.44894471454626      0.89610010187639      0.57683414548569
  N   -4.67131524814258      1.98469180789099      0.93060925200917
  H   -5.19292414683613      2.85344738331743      1.00076241836816
  H   -3.81042384385358      2.07507501920822      0.38765590808236
  H   -7.29671619177580      1.88233307714358      1.05606171381488
  H   -8.76192395865945     -0.04655652934182      0.63102898566381
  H   -7.78670854703900     -2.26326482168182     -0.10756847853066
  N   -2.36640544957081      1.08400962084260     -0.44947426774485
  C   -1.22529262612369      1.76867361503171     -0.58037232223815
  N   -1.20939715008712      3.09129499467133     -0.78924630703812
  C   -0.00006410709041      3.65831482407891     -0.88429224468138
  N   1.20930631172839      3.09139975833014     -0.78909579553216
  H   -0.00010035044424      4.73983948331917     -1.05659282548543
  H   2.95539915909596     -2.81091072702992     -0.75133123043438
  H   7.78696736483849     -2.26269254007317     -0.10672065531774
  H   8.76196699723664     -0.04596059845064      0.63208631689478
  H   7.29659228015997      1.88280824979750      1.05708090075803
  H   3.81035255109607      2.07537095034008      0.38838217270045
  H   5.19275681465267      2.85378279102526      1.00165749217449
