16
Coordinates from ORCA-job ./opt_b3lyp_cdz
  Cl  3.71746314499660      0.00000976580223      0.00010412601032
  C   1.97528612047824      0.00000569853517     -0.00014284251658
  N   1.41159256374567      1.20198629043868     -0.00006084777417
  C   0.07409577772470      1.21822457707013     -0.00003331042507
  N   -0.60450862173516      2.36844054201533     -0.00001462634819
  C   -1.93673565125621      2.26637852704486     -0.00001184132014
  N   -2.69197390774883      1.16662418535509     -0.00001078191977
  C   -2.03732079433165     -0.00000373091340     -0.00003757142146
  N   -2.69196842326944     -1.16663470971788     -0.00003864036183
  C   -1.93672496808906     -2.26638549935763     -0.00006379761359
  N   -0.60449748224338     -2.36844123016404     -0.00006960977064
  C   0.07410150650261     -1.21822206762756     -0.00006218890927
  N   1.41159821120328     -1.20197754900200     -0.00008919007229
  N   -0.63037687432259     -0.00000040726768     -0.00005287847535
  H   -2.48286626741236     -3.21641716451270     -0.00004999239753
  H   -2.48288141611102      3.21640764087206      0.00002805544474
