48
Coordinates from ORCA-job ./opt_b3lyp_cdz
  O   7.13372994212911      2.49224120997122      0.48025661286920
  C   6.64529332884583      1.22692643975896      0.32294302840102
  C   5.27414970281330      0.97923395543909      0.17654310058975
  C   4.89272904551813     -0.35587910869180      0.01699724130218
  N   3.63940889316814     -0.99131998320008     -0.13011988053143
  C   3.93095603173705     -2.36607108289765     -0.25355912001796
  N   5.19445370828927     -2.64234901730916     -0.18612452227852
  C   5.83062344676577     -1.41128595903081     -0.00381939588433
  C   7.19609606471156     -1.13921404545187      0.14409247622978
  C   7.59561462629989      0.18232559271208      0.30839899739115
  H   8.64810435386958      0.44569110212307      0.42512215526259
  H   7.92063555147310     -1.95504495925689      0.12873975581239
  H   3.14128317253721     -3.08729995629023     -0.43525813234334
  C   2.37742922572294     -0.41516174952973     -0.16455450738001
  N   2.36655055185467      0.92178508906846     -0.29493052962123
  C   1.22710900075604      1.61476577400246     -0.35988273657297
  N   0.00000920667233      0.93967918167561     -0.32497074593157
  C   -0.00000154820856     -0.40359258720350     -0.18501341198910
  C   -1.17588936382961     -1.17340095954625     -0.06382814588407
  C   -0.69508427100240     -2.51403962125438      0.17797441480636
  C   0.69519053362996     -2.51403068618920      0.17781890148695
  C   1.17590748136213     -1.17336341597805     -0.06394075522025
  H   1.29993630296310     -3.39614479793037      0.37032646709683
  H   -1.29974938447192     -3.39619226163160      0.37060273472643
  C   -2.37740457718475     -0.41515720367911     -0.16434393685398
  N   -3.63940690391511     -0.99129343781281     -0.12974890780754
  C   -4.89273229479961     -0.35586058813624      0.01723818226198
  C   -5.83058954256652     -1.41132811725320     -0.00344589378909
  N   -5.19437370636097     -2.64238328293619     -0.18552122444750
  C   -3.93088215309081     -2.36606974369846     -0.25297270752279
  H   -3.14105549449705     -3.08718323616149     -0.43449280867630
  C   -7.19607987327784     -1.13926795406809      0.14436899922399
  C   -7.59563311684827      0.18228867164521      0.30843559951779
  C   -6.64535702765882      1.22692923888566      0.32285217242668
  C   -5.27419666349224      0.97927123622319      0.17655518083230
  H   -4.54039840306744      1.78327457816625      0.16562770407387
  O   -7.13387040232240      2.49224512828038      0.47993763679484
  H   -6.39273002533648      3.11632960833699      0.46498115055799
  H   -8.64813594682723      0.44564498398147      0.42507206364634
  H   -7.92060729086872     -1.95511102009522      0.12912714208482
  N   -2.36651365211917      0.92179030957844     -0.29468620228591
  C   -1.22708102642707      1.61477632971530     -0.35976221949648
  N   -1.20948051998762      2.94999568211730     -0.45872301991329
  C   0.00000932089475      3.52199790842376     -0.50549624012400
  N   1.20949897095931      2.94998547719957     -0.45884818132445
  H   0.00000923510313      4.61415318385147     -0.58928808113693
  H   4.54032899318122      1.78322333873731      0.16569079100213
  H   6.39255744370249      3.11628863733906      0.46535730723576
