50
Coordinates from ORCA-job ./opt_b3lyp_cdz
  N   -8.09184823602500     -1.89832193861890      0.01910681329569
  C   -7.20411067353102     -0.84275789418749      0.15131835789473
  C   -5.82059641134721     -1.05583272767096     -0.02396035118593
  N   -5.18468352943931     -2.27498535983608     -0.25925185504169
  C   -3.92102219248768     -1.98906476265779     -0.32917023019485
  N   -3.64068130801024     -0.62280625012325     -0.15562940243327
  C   -4.89583751780089      0.00583954571265      0.03425521918618
  C   -5.28853499851754      1.32769020404116      0.27397328264221
  C   -6.66102435805253      1.52472090491624      0.45998941616652
  C   -7.59994528758667      0.48188916835286      0.40315867369394
  H   -8.66105464260726      0.70262665595708      0.54629923612621
  H   -7.02170197932839      2.53853298586690      0.65035651975738
  H   -4.57449269570888      2.14516080820950      0.29660466821107
  C   -2.37888728785498     -0.04155154202857     -0.18716619267492
  N   -2.36945176433633      1.29464643664201     -0.30771087628111
  C   -1.22904794423818      1.98802928178057     -0.36723558039017
  N   -0.00119890106703      1.31217479977111     -0.33780067137624
  C   -0.00199551070588     -0.03206360057473     -0.20971989587458
  C   1.17326126622845     -0.80259145920540     -0.09061818244101
  C   0.69277472140387     -2.14389817409201      0.14582410968237
  C   -0.69822437908854     -2.14354747488907      0.14433567173055
  C   -1.17795891025343     -0.80193992198590     -0.09291145990631
  H   -1.30465459121476     -3.02533836082379      0.33399236233030
  H   1.29889608718798     -3.02556359934791      0.33723377720289
  C   2.37488810220502     -0.04321668196995     -0.18142664486764
  N   3.63553977047222     -0.62684596994648     -0.14726090504796
  C   4.89116947996359     -0.00261602993557      0.05258549711458
  C   5.81282465592489     -1.06733179259224     -0.00063987424896
  N   5.17618226247528     -2.28162066448799     -0.25805854004709
  C   3.91374029771561     -1.99190534882806     -0.33372765301749
  H   3.12220468616884     -2.69562161397354     -0.56931908647422
  C   7.19641614036662     -0.85818705743915      0.17799256477392
  N   8.06613809825248     -1.93706021311746      0.18799254402725
  H   7.68866150478979     -2.77700340585472     -0.24120665134602
  H   9.02035723689907     -1.73817777979074     -0.09398522394053
  C   7.59900003760615      0.47021393376266      0.39714988266945
  C   6.66403395139529      1.51725242595392      0.44100211710570
  C   5.28908717981453      1.32099135367473      0.27312836993500
  H   4.57751991719598      2.14077500754804      0.28881546870717
  H   7.02962177019848      2.53342161007985      0.60798098358832
  H   8.66068153183192      0.68838638713037      0.54003480280358
  N   2.36712982936982      1.29302994385267     -0.30123683558704
  C   1.22725566695263      1.98715111549733     -0.36392485386335
  N   1.20932125483461      3.32245184568375     -0.45414596592241
  C   -0.00006054813154      3.89480596223428     -0.49902254718458
  N   -1.20992634616007      3.32335164395953     -0.45715122642712
  H   0.00042497189509      4.98746594166218     -0.57609871243532
  H   -3.12955239034205     -2.69812513562411     -0.54783306311408
  H   -8.95995161821049     -1.81520615933019      0.53764843685952
  H   -7.66197371510350     -2.81512906135712      0.09989185581927
