46
Coordinates from ORCA-job ./opt_b3lyp_cdz
  F   -2.56809597792627     -2.08735091579103     -1.25000551892073
  C   -3.76195501212434     -2.05742975413567     -0.61688807721095
  C   -4.59994353851674     -3.16322050943599     -0.67548883586929
  C   -5.87247088378783     -3.12741702319003     -0.07315183653417
  C   -6.33240039421943     -1.98498950519809      0.57773018621976
  C   -5.47984340693786     -0.87530158807582      0.63971591788256
  N   -5.73566900042156      0.39104416258931      1.16316762647087
  C   -4.66253434989379      1.08356532910266      0.92565665210832
  N   -3.64432842539132      0.35816533489445      0.29068335689743
  C   -4.17510512481367     -0.92143827130165      0.08357000464952
  C   -2.36280389028060      0.88777805964431      0.06090346025394
  N   -2.36956814595465      2.19427159736756     -0.25084695049908
  C   -1.23025882119963      2.87183784412870     -0.43259762411034
  N   0.00014697852301      2.19923665488442     -0.33000314800654
  C   0.00005960458247      0.88757226793708     -0.02842164284137
  C   1.17330882752061      0.14457312044796      0.22296573502495
  C   0.69306112898814     -1.13920499440690      0.68658157233695
  C   -0.69315739167599     -1.13906874304261      0.68676093718558
  C   -1.17326865955696      0.14480953189848      0.22328772851107
  H   -1.31475188623392     -1.97491615550402      0.99495595989525
  H   1.31456805080744     -1.97517390862480      0.99461844429966
  C   2.36294870952536      0.88731032637678      0.06026361357291
  N   3.64444183717219      0.35746905939321      0.28970328036296
  C   4.17500688672483     -0.92218223694601      0.08231287471466
  C   5.47985014703819     -0.87630078172292      0.63823733550592
  N   5.73596461540946      0.38995329339846      1.16176705261060
  C   4.66289330269758      1.08266131905560      0.92452017562310
  H   4.49349435041408      2.12412645592549      1.18674851829266
  C   6.33223430523669     -1.98610611674612      0.57598006195149
  C   5.87203484899312     -3.12838609011555     -0.07496823090097
  C   4.59941337521339     -3.16392324348832     -0.67711983883582
  C   3.76159346464369     -2.05801923744287     -0.61824440544164
  F   2.56765956386640     -2.08767220339160     -1.25123215585107
  H   4.25297450034994     -4.04579990870786     -1.21830593655838
  H   6.51114992360767     -4.01085763395116     -0.14360975599778
  H   7.32996879826486     -1.93060307487189      1.01280820655481
  N   2.36987983965899      2.19380917886734     -0.25146262381819
  C   1.23065595139161      2.87159835950867     -0.43291442871363
  N   1.20997018875574      4.17894654373797     -0.71297998267708
  C   0.00032691637863      4.73737910156794     -0.84503173689277
  N   -1.20939079193471      4.17918159965656     -0.71267091606121
  H   0.00039992924782      5.80579682483306     -1.08597092218991
  H   -4.49293126159453      2.12503374970861      1.18774067248264
  H   -7.33005318686401     -1.92929047353621      1.01471995480174
  H   -6.51172243186205     -4.00980669299908     -0.14157556734542
  H   -4.25371007812263     -4.04522355279834     -1.21660046333276
