52
Coordinates from ORCA-job ./opt_b3lyp_cdz
  F   -9.51214782908336     -1.19069752694838      0.53483374299133
  C   -9.04241077582268     -0.46011699127259     -0.50547144457462
  C   -7.58595641590413     -0.11683536042573     -0.33186213990083
  C   -7.18980804213125      1.20567470184543     -0.14056762747608
  C   -5.82479568635216      1.45408766272695      0.03217179821131
  N   -5.18928434133909      2.68020726246198      0.24079746390515
  C   -3.92746626943455      2.39400529244642      0.32318605236181
  N   -3.63875571000621      1.02577919992306      0.18553673137492
  C   -4.88825731633978      0.39553840247544      0.01069778783907
  C   -5.28116080489087     -0.93494103413965     -0.17838423110754
  C   -6.64416909477111     -1.16791247764177     -0.35115938610191
  H   -6.99313584691567     -2.19085450355896     -0.50142176835980
  H   -4.55780115724878     -1.74585139257484     -0.17474376351839
  C   -2.37392884960963      0.44470807903092      0.24163827224541
  N   -2.36826835292871     -0.88475142181684      0.40911233272935
  C   -1.22790155618048     -1.57796728120332      0.49669547627231
  N   -0.00066516241878     -0.90215600189870      0.44766924917773
  C   -0.00026397906266      0.43572550420097      0.27215805269504
  C   1.17545984990929      1.20231348560012      0.13121461945605
  C   0.69591630771300      2.53543103171721     -0.15244051264042
  C   -0.69435482833850      2.53541059608387     -0.15598641618197
  C   -1.17527858464728      1.20220023198169      0.12480389403869
  H   -1.29932869706677      3.41094393982996     -0.37702721580544
  H   1.30196939431847      3.41099431345974     -0.37036217570857
  C   2.37350102925157      0.44488662409532      0.25457321787473
  N   3.63862128368954      1.02591783921204      0.20454071121940
  C   4.88886167906843      0.39565945949565      0.03522394724872
  C   5.82515049357402      1.45430764589528      0.05895237261835
  N   5.18877906692998      2.68049473443227      0.26449281277651
  C   3.92663085381557      2.39427146421230      0.34200744647772
  H   3.13587304260328      3.11118935888114      0.53976246257787
  C   7.19105475586486      1.20574714900978     -0.10724860602340
  C   7.58798090404504     -0.11686560749304     -0.29529442462730
  C   6.64666378850648     -1.16852129835999     -0.31346806967027
  C   5.28291470697683     -0.93541423669510     -0.14773795073373
  H   4.55994844973309     -1.74665278283549     -0.14241699498587
  H   6.99700603555962     -2.19244000307637     -0.45380596262193
  C   9.04213836336825     -0.45912711570621     -0.48870217203106
  F   9.26637374472397     -1.01884458226549     -1.70259147191400
  F   9.84476149569161      0.62286850459397     -0.39494113450469
  F   9.47113472084747     -1.35825585771283      0.42958110649078
  H   7.90834126997834      2.02536313966997     -0.08837277003101
  N   2.36707739154550     -0.88452491477582      0.42235600028795
  C   1.22634701755551     -1.57785847250566      0.50367948544690
  N   1.20802147571841     -2.90767610367895      0.63919163539683
  C   -0.00124077780186     -3.47985006486157      0.69857413317999
  N   -1.21019585348037     -2.90779656175711      0.63219752512497
  H   -0.00151519899907     -4.56893081968348      0.81262210013479
  H   -3.13761402183795      3.11079133602123      0.52503284674625
  H   -7.90703350074094      2.02545302160808     -0.12548778302053
  F   -9.25187407742199     -1.20424390796870     -1.61827457656908
  F   -9.82324061471265      0.63746360574620     -0.60412258039095
