52
Coordinates from ORCA-job ./opt_b3lyp_cdz
  F   -9.45912550545052     -1.10577981575283      0.31090124794961
  C   -8.19678239200706     -1.55361982437179      0.10695522976672
  C   -7.19382811588716     -0.43003864759848      0.16622124963041
  C   -5.82369288334800     -0.68435021420374     -0.01531581255148
  N   -5.18672998322379     -1.89955751059431     -0.26555486671519
  C   -3.92469108137221     -1.60855684355549     -0.33625783952495
  N   -3.63838043950831     -0.24818749334233     -0.15133267783265
  C   -4.89048500110572      0.37528212077426      0.04369240008197
  C   -5.27878225702979      1.69920339066265      0.27533091890226
  C   -6.64386397433966      1.92853402724793      0.45394452532062
  C   -7.58772142431447      0.88682171141547      0.40152587039815
  H   -8.64571914647980      1.10650588685398      0.54386940887188
  H   -6.98967545906989      2.94847765270565      0.63337118474807
  H   -4.55038979913248      2.50554428350418      0.29659006405731
  C   -2.37390176931576      0.33504012014090     -0.18662625111422
  N   -2.36766964283391      1.66919071722401     -0.31393441284006
  C   -1.22704151092973      2.36431350156975     -0.37751655788796
  N   -0.00005424553771      1.68721937632365     -0.34589092449515
  C   -0.00015044421663      0.34468509849570     -0.21080897883358
  C   1.17503369729210     -0.42603045121641     -0.08937997102501
  C   0.69444370761817     -1.76687371163291      0.15317054610302
  C   -0.69579699836411     -1.76656166950081      0.15325668713976
  C   -1.17564474791818     -0.42553755732993     -0.08933219913741
  H   -1.30138900723375     -2.64821120824809      0.34661970132307
  H   1.29936158856807     -2.64899062412246      0.34646018105723
  C   2.37357334688089      0.33426340601828     -0.18689009914602
  N   3.63808007559945     -0.24880892326760     -0.15175530094583
  C   4.89058872119077      0.37541159288428      0.03902818580606
  C   5.82367416835955     -0.68445523274000     -0.01757745271265
  N   5.18627942573788     -1.90064957874194     -0.26192329401951
  C   3.92416378526165     -1.60992280101118     -0.33169480339534
  H   3.13456388095178     -2.32106264740996     -0.55313420385093
  C   7.19416121662213     -0.42960864373432      0.16034122885700
  C   7.58865384895009      0.88811899332584      0.38975355441021
  C   6.64496697708461      1.93005826875082      0.43994115449414
  C   5.27950415938557      1.70018017798209      0.26485095029097
  H   4.55121798524476      2.50662515192806      0.28469826257672
  H   6.99113590003400      2.95067499828700      0.61480076390608
  H   8.64694472243171      1.10825651552428      0.52918501359629
  C   8.19684546281392     -1.55357692095558      0.10381893093502
  F   9.45981301056173     -1.10481878062240      0.30181705940436
  F   7.95775349102305     -2.48964204536162      1.04731759196185
  F   8.18317129184701     -2.18170665798633     -1.09108455264095
  N   2.36745898415269      1.66838880404471     -0.31449328968164
  C   1.22711018266986      2.36390767974631     -0.37793767515295
  N   1.20939216139808      3.69747503109719     -0.47294214939554
  C   0.00034744686854      4.27122579701016     -0.51814637197496
  N   -1.20886402957940      3.69788735129532     -0.47238025328478
  H   0.00051698855883      5.36332228487696     -0.59901715906705
  H   -3.13531735501240     -2.31865675230155     -0.56199574233085
  F   -7.95502570050196     -2.49453324059303      1.04491086226359
  F   -8.18665659919425     -2.17561016879438     -1.09121507019599
