50
Coordinates from ORCA-job ./opt_b3lyp_cdz
  O   -6.24923440879227     -3.10104556090973     -0.56231107688792
  N   -7.09798033504446     -2.21757937897186     -0.54888071793818
  O   -8.30302225431350     -2.39911220610350     -0.68413592529575
  C   -6.63492324735003     -0.82412109869336     -0.35805854052079
  C   -5.26673874002037     -0.61200787113999     -0.18488562944680
  C   -4.88667571095386      0.71797939283406     -0.00966659470593
  N   -3.63833924252817      1.35156522226913      0.16259739693717
  C   -3.92949587166061      2.71606668230780      0.28370154653004
  N   -5.19330622917097      3.00277762854225      0.19402947022477
  C   -5.82724778479245      1.77755802356645     -0.00305980461676
  C   -7.19364024629443      1.52144830493887     -0.17733805405073
  C   -7.59560059338720      0.20241355750415     -0.35660276194063
  H   -8.64173088612601     -0.06493204606340     -0.49576746466364
  H   -7.91021406244582      2.34362608442567     -0.17079282308463
  H   -3.14122869852434      3.43710223452422      0.47853128870350
  C   -2.37139914553404      0.77036899998607      0.23505859200982
  N   -2.36835613188886     -0.55156213793883      0.44089787837044
  C   -1.22663203657767     -1.24357263988539      0.54665096686705
  N   0.00001108032912     -0.56834810571184      0.47355778260798
  C   0.00000643331809      0.76369249829506      0.26073111756253
  C   1.17496381667856      1.52621422987736      0.09529386294974
  C   0.69533660917273      2.85117077592684     -0.22345497334899
  C   -0.69521857246391      2.85123393851151     -0.22332975685001
  C   -1.17492393918020      1.52624033733553      0.09515399019872
  H   -1.30103591961909      3.72043754057788     -0.46654650530340
  H   1.30121065405263      3.72030962639190     -0.46675335272417
  C   2.37144353442708      0.77039907972663      0.23540152037847
  N   3.63837631133940      1.35160766374532      0.16298913422383
  C   4.88669220678656      0.71803086640254     -0.00947190919065
  C   5.82727809672267      1.77759445007262     -0.00278653446698
  N   5.19336855310081      3.00279070466370      0.19455064385473
  C   3.92956017852292      2.71608351561871      0.28427030674999
  H   3.14131695494200      3.43709196718028      0.47929946334155
  C   7.19365084657467      1.52147156024125     -0.17722095206961
  C   7.59554643507997      0.20244636946209     -0.35671047179462
  C   6.63485284305062     -0.82407090827119     -0.35823135518557
  N   7.09787264915398     -2.21751604596753     -0.54927538669460
  O   6.24909534540972     -3.10094524023059     -0.56282650344444
  O   8.30290858700691     -2.39905778647198     -0.68455359275427
  C   5.26669452227079     -0.61194697143960     -0.18490858616544
  H   4.56598839737134     -1.44084785411427     -0.17396161952047
  H   8.64165929159735     -0.06490561511147     -0.49599870205993
  H   7.91025029790301      2.34362593797566     -0.17061807159232
  N   2.36839547330367     -0.55154023155851      0.44121444389603
  C   1.22665184445349     -1.24355898276700      0.54679534144963
  N   1.20869572182490     -2.56675024884203      0.72368961039000
  C   -0.00000036765932     -3.13813212602548      0.80427541632723
  N   -1.20869086115019     -2.56676613428213      0.72354878055490
  H   -0.00000703202622     -4.22293674475251      0.95187450531985
  H   -4.56613134368962     -1.44098569695154     -0.17391450913073
