50
Coordinates from ORCA-job ./opt_b3lyp_cdz
  O   -2.65812516830661     -0.06109546021323     -2.29671227856974
  N   -3.01179167570009     -1.23513893017501     -2.20455105579858
  O   -2.63918799535095     -2.14013760794779     -2.94101601288092
  C   -3.98444631011940     -1.55441261955147     -1.15463210307740
  C   -4.81454364092714     -2.66075421511705     -1.35084274228748
  C   -5.88398913515654     -2.92525623820343     -0.48335448392851
  C   -6.16071128102382     -2.07528627352473      0.58730278549481
  C   -5.31926448656830     -0.97917349032735      0.80577516547954
  N   -5.42180575329113     -0.00133353910080      1.78890144211117
  C   -4.42002607405662      0.79734591074783      1.57216673900245
  N   -3.60794149776661      0.41408229132311      0.49732209755519
  C   -4.19832319730571     -0.72958531142052     -0.03460294378952
  C   -2.33923823913378      1.00515579269836      0.28333834222063
  N   -2.34863183453880      2.34124289693394      0.33465991716352
  C   -1.21620707135456      3.04527866651697      0.18800982497560
  N   -1.19294503253498      4.38064446017682      0.19875131058234
  C   0.00087250732280      4.95488142983593      0.00095336753191
  N   1.19451458701183      4.38034310601741     -0.19702938812203
  C   1.21736824015891      3.04496721336158     -0.18671678435648
  N   0.00047682606889      2.36688979410640      0.00053696582583
  C   0.00027115687924      1.02379292575536      0.00032241184444
  C   -1.16337062053736      0.24255761330959      0.13681215416844
  C   -0.68958148416851     -1.12212706727451      0.08546232388899
  C   0.68947288240023     -1.12230991546095     -0.08548739786568
  C   1.16367478974333      0.24224665597148     -0.13641597415460
  C   2.33977386229043      1.00453199715589     -0.28270170784362
  N   3.60829618801196      0.41313305187394     -0.49685966409186
  C   4.42052725101213      0.79649833676085     -1.57155648127318
  N   5.42208337106252     -0.00240377594610     -1.78850781284649
  C   5.31921720587344     -0.98052965143250     -0.80569976761293
  C   6.16033697195653     -2.07695623690422     -0.58754151503415
  C   5.88331472176372     -2.92719539432936      0.48282484310310
  C   4.81389546160886     -2.66267307972477      1.35033955748280
  C   3.98412442202653     -1.55603115201339      1.15444447744146
  N   3.01147890366383     -1.23683844974859      2.20439617769901
  O   2.65815640309522     -0.06272131986331      2.29694359295581
  O   2.63863291614462     -2.14196303818390      2.94058367382157
  C   4.19830886548690     -0.73088959389995      0.03470642132534
  H   4.62051182330654     -3.29224343279524      2.21814565313271
  H   6.52005003954947     -3.79275849307487      0.67325779243131
  H   7.01281122880435     -2.24011890372723     -1.24880666065041
  H   4.16337470069968      1.68370217740801     -2.14592204990241
  N   2.34957844342965      2.34063231709676     -0.33359206463161
  H   1.30621826926586     -2.01516291755966     -0.16191932329835
  H   -1.30659828831478     -2.01481596700745      0.16161897584991
  H   0.00103991579123      6.04990190533969      0.00112944878025
  H   -4.16258729734720      1.68428602460611      2.14681136932961
  H   -7.01319999091711     -2.23841779612337      1.24855683056719
  H   -6.52098436197783     -3.79057285761684     -0.67403788454203
  H   -4.62139301153863     -3.29009071232701     -2.21887029320776
