50
Coordinates from ORCA-job ./opt_b3lyp_cdz
  O   7.86437023380845      2.78788132650384     -0.27763042449306
  N   8.22387271588727      1.62792736431849     -0.14715772863819
  O   9.38583013503441      1.25511090506720     -0.00625251031109
  C   7.18459053865113      0.58000008034635     -0.17581187199471
  C   5.82170277097001      0.87602437214606      0.01242364252123
  N   5.17823651671105      2.07798238639310      0.29619320149765
  C   3.91883722500698      1.77570291090762      0.37149634864081
  N   3.63677593522746      0.42081842496388      0.16103286568557
  C   4.88986185710309     -0.19207474389470     -0.05284993063745
  C   5.26591664968469     -1.51592288287463     -0.29666161279649
  C   6.62897191439309     -1.76430470404532     -0.47426365183305
  C   7.57940489138408     -0.73528046593609     -0.40904310270796
  H   8.64223573863087     -0.93655395735282     -0.53612709144669
  H   6.96397223280808     -2.78597378117346     -0.66186736950318
  H   4.52729201121212     -2.31267186834601     -0.32391423952422
  C   2.37257323401147     -0.16694869260231      0.19516570707852
  N   2.36760655364421     -1.50093492711642      0.31772820325760
  C   1.22686916843995     -2.19719715026635      0.37884452072195
  N   0.00001324958111     -1.51972836123162      0.35081668156097
  C   -0.00003075340104     -0.17699635281442      0.22131072247209
  C   -1.17509974895562      0.59410342617399      0.10186080583051
  C   -0.69509658165374      1.93591714102148     -0.13773784290547
  C   0.69498182370051      1.93590061465581     -0.13800663612898
  C   1.17503610080496      0.59408424058537      0.10150833535519
  H   1.30120724158388      2.81762818206699     -0.32934519176795
  H   -1.30132346026754      2.81766873464534     -0.32895991640215
  C   -2.37259203496233     -0.16699123545207      0.19590620964230
  N   -3.63681999908289      0.42074714307922      0.16242079758292
  C   -4.89000938360932     -0.19208626285047     -0.05105761506249
  C   -5.82187079825522      0.87598301525688      0.01489101033604
  N   -5.17823288324350      2.07787327336039      0.29868590129603
  C   -3.91880531248967      1.77555976078602      0.37337071363609
  H   -3.12948921018274      2.47783976222502      0.62368393401292
  C   -7.18482084741481      0.57994493882168     -0.17305814513139
  N   -8.22435085738504      1.62768690380273     -0.14364047210305
  O   -9.38656052206471      1.25434749330863     -0.00619040072725
  O   -7.86480309295572      2.78807203491503     -0.27000031255930
  C   -7.57957676616114     -0.73531247780974     -0.40668959912588
  C   -6.62915204263084     -1.76428127602380     -0.47241403828493
  C   -5.26606045411420     -1.51588110533312     -0.29510596964525
  H   -4.52737528360304     -2.31255543503587     -0.32280688020846
  H   -6.96415089719536     -2.78591750210848     -0.66019780083099
  H   -8.64242931765908     -0.93648657448597     -0.53369580200471
  N   -2.36756136556677     -1.50098558274011      0.31833150570664
  C   -1.22683525697722     -2.19724500981388      0.37913542158416
  N   -1.20897827939204     -3.53077619825688      0.46757710477739
  C   0.00006026948283     -4.10507750162550      0.51041051033623
  N   1.20905239173491     -3.53071579094755      0.46732443314432
  H   0.00008753136849     -5.19744198235451      0.58612539209656
  H   3.12956947755892      2.47799426374009      0.62194166400110
