66
Coordinates from ORCA-job ./opt_b3lyp_cdz
  N   -4.69546636332010     -1.05746621223379      0.31938562621047
  C   -5.06565579558585     -2.40416733204168      0.34172655572842
  N   -4.24597274320157     -3.30746024862751     -0.30173449789813
  C   -4.71687381938761     -4.58967376493191     -0.09960157463061
  C   -5.85777225135876     -4.50047977005389      0.67021278417414
  C   -6.08189361523536     -3.11906658541697      0.96300637445597
  H   -6.86752188531213     -2.70583300503778      1.58840817369922
  H   -6.46990862096661     -5.33641219287734      1.00105914834909
  H   -4.20219380115967     -5.44815993544772     -0.52149248544653
  H   -3.40694039261033     -3.05176690375221     -0.81557491681887
  C   -5.50037061778127      0.05323057308286      0.17438886389952
  C   -6.91218720114967     -0.01604199618918      0.19314029092403
  C   -7.72804059804771      1.11765523843391      0.12183693027466
  C   -7.19159928929480      2.40161179522822      0.02798125179368
  C   -5.79982169609014      2.49851050488736     -0.01957551137835
  N   -5.05197824150362      3.67758632570064     -0.11359669917036
  C   -3.81769813283579      3.30498254890781     -0.10606657633677
  N   -3.63385382026425      1.90586326199899     -0.02167166141447
  C   -4.95698425061251      1.36140932788028      0.02748921420518
  C   -2.38504372381608      1.32891245665094     -0.16062155139470
  N   -2.35459698696796      0.05340785936625     -0.61130374670275
  C   -1.22145965999892     -0.61000061729657     -0.82316664145110
  N   -1.20838751946713     -1.90552517573261     -1.18438719895903
  C   -0.00013115573798     -2.46107966546597     -1.34229053043444
  N   1.20821824100235     -1.90580105452495     -1.18412006394428
  C   1.22150530407171     -0.61028243994620     -0.82288509348728
  N   2.35474575424514      0.05286301320207     -0.61075792075945
  C   2.38538610156712      1.32835865015772     -0.16006824579319
  N   3.63430542815155      1.90500358877359     -0.02084306950798
  C   3.81852857201970      3.30407483336596     -0.10524001333195
  N   5.05290577469257      3.67636008562241     -0.11253314547003
  C   5.80042649250078      2.49709323037738     -0.01832911825174
  C   4.95728747073983      1.36021129977641      0.02860146565347
  C   5.50030588753914      0.05189673021497      0.17566154247667
  N   4.69507968375143     -1.05858142142894      0.32058018251283
  C   5.06490371450071     -2.40538531155460      0.34295355611934
  N   4.24507467995720     -3.30845354811168     -0.30063774116163
  C   4.71560810151991     -4.59079236865243     -0.09845052059040
  C   5.85640825472447     -4.50191164991018      0.67154619909755
  C   6.08086146415774     -3.12055947028727      0.96437328824076
  H   6.86650813005336     -2.70753832458608      1.58989279015948
  H   6.46826679469365     -5.33801112733093      1.00248413908515
  H   4.20076218013837     -5.44913811898483     -0.52042499464097
  H   3.40618055637134     -3.05253309673696     -0.81459168871589
  H   3.73936153408218     -0.89070869866619     -0.00090959061591
  C   6.91210021335685     -0.01773936082731      0.19469620057152
  C   7.72825914779962      1.11574589110913      0.12350868546183
  C   7.19216925022952      2.39983808070284      0.02950265753998
  H   7.80716170733528      3.29894369095010     -0.00422875753176
  H   8.81194706151435      0.97964809165393      0.14804441972765
  H   7.36999911058453     -1.00348016913207      0.25766268181520
  H   2.96277485397113      3.96209932170170     -0.22286646971668
  C   1.17522287704943      2.02532348945620      0.12507745072090
  C   0.00017384679840      1.31717700769663     -0.19901659028713
  C   -1.17478638732304      2.02559315002404      0.12481071086825
  C   -0.69477376065921      3.25010558622168      0.72485014241961
  C   0.69535253627768      3.24995619383690      0.72498683568754
  H   1.30784048935658      4.04048113662584      1.15160330343085
  H   -1.30717487286376      4.04076702987127      1.15133998354282
  N   0.00007940675609      0.04219224120766     -0.65796259210013
  H   -0.00021990190091     -3.51672941412074     -1.63188346676516
  H   -2.96174617995679      3.96278697390102     -0.22349505207774
  H   -7.80635335900467      3.30087714487627     -0.00584197341937
  H   -8.81176760656854      0.98183200306188      0.14615374632051
  H   -7.37035210544233     -1.00166802577873      0.25596824754600
  H   -3.73965373903158     -0.88985003130092     -0.00194658401048
