65
Coordinates from ORCA-job ./opt_b3lyp_cdz
  N   -4.71375959282363     -1.14625973883188      0.31010764401198
  C   -5.06944084054103     -2.49672657369165      0.27952921899524
  N   -4.25636754198985     -3.35994505250797     -0.42436972446872
  C   -4.70887072389444     -4.65535445171551     -0.27057397187037
  C   -5.83140984219123     -4.61496284189595      0.52975006203634
  C   -6.06274464978029     -3.25106950066279      0.89134787532278
  H   -6.83697119062716     -2.87627594823139      1.55403957074525
  H   -6.42647712602978     -5.47224705336067      0.83626201727680
  H   -4.19544299344561     -5.48740748855395     -0.74384267879565
  H   -3.43274310132896     -3.07111869359793     -0.94600488941344
  C   -5.53308384329507     -0.03906000131035      0.23788338054397
  C   -6.94289285684241     -0.12367428655895      0.29694661062876
  C   -7.77090518278759      1.00361421830597      0.30032198041429
  C   -7.24944964944745      2.29579518430844      0.24582123720397
  C   -5.86060452448262      2.40918536893465      0.15931205841033
  N   -5.12707475557232      3.59894960151788      0.09206103458863
  C   -3.88974047230643      3.23898977438901      0.04413301562360
  N   -3.69055895819845      1.84007583516607      0.06310902781436
  C   -5.00641630025456      1.28000510066794      0.13113870155432
  C   -2.44126701427620      1.28205930531446     -0.13954536426623
  N   -2.41310769248208      0.02711085647807     -0.64082246799169
  C   -1.28086198499807     -0.61847961210361     -0.91359516982007
  N   -1.27070695696724     -1.89533454437749     -1.32995051497834
  C   -0.06159963901820     -2.43024870616594     -1.55476042214739
  N   1.14463963366129     -1.87169956094382     -1.40984951531410
  C   1.16298834712018     -0.59962316564582     -0.98598758623014
  N   2.30224096944813      0.06401006510366     -0.77496400364583
  C   2.32321464114329      1.32275592248257     -0.28478479937376
  N   3.56338981117940      1.93027492412072     -0.16071619963669
  C   4.89470442098515      1.42177956640095     -0.07508562384349
  C   5.71002795232731      2.57993766956622     -0.12046266007204
  N   4.93640874986858      3.73578351971417     -0.26080517952773
  C   3.71161704028466      3.32988141234222     -0.27156724520503
  H   2.84000064609559      3.96078856725244     -0.42063000108665
  C   7.10075373268976      2.51831673693900     -0.01200529971340
  C   7.66251892151372      1.25424168255187      0.15274909180060
  C   6.87210244971138      0.10035880396286      0.21397429810093
  C   5.46431248266528      0.13411016783134      0.11412843640760
  N   4.67282800194075     -1.00284431564325      0.21306715811104
  C   5.07989209271274     -2.31578398440920      0.36473157187931
  C   4.53514686597437     -3.47428719936561     -0.13034384303473
  C   5.28469823705059     -4.54427323518058      0.46987317798344
  C   6.22569351095520     -3.96499716241027      1.26517232782723
  O   6.10492681873349     -2.59277408607804      1.21957142021274
  H   7.03003469560200     -4.34120044290368      1.88844630546580
  H   5.14440372770396     -5.61135778266525      0.31351596598994
  H   3.70433959153458     -3.53840555782710     -0.82820041072773
  H   3.75263225952338     -0.90060893920723     -0.22616812104093
  H   7.35185294924317     -0.86490031724047      0.35942707436823
  H   8.74600020774688      1.14743734370477      0.24166439467791
  H   7.69448983888531      3.43174535361416     -0.04572274216741
  C   1.11906722571164      1.99964573713761      0.05716871485821
  C   -0.06017234223838      1.29318720281412     -0.25279063608131
  C   -1.22831797178371      1.98004462649431      0.13296699327560
  C   -0.73694225026337      3.18763629243530      0.75906374185259
  C   0.65228396354577      3.19975685792930      0.71376942212255
  H   1.27490376230885      3.98029596373198      1.14430730806495
  H   -1.34073573747368      3.95813423533009      1.23226121930623
  N   -0.05893359328979      0.03725704135030     -0.75736093292883
  H   -0.06224379580389     -3.47037324441298     -1.89600635890375
  H   -3.04423781020688      3.91026185264744     -0.07227390339566
  H   -7.87297398201473      3.18933431882709      0.26982626685085
  H   -8.85206239199151      0.85540973924925      0.35217839178085
  H   -7.39013205671728     -1.11568395571791      0.33074682475021
  H   -3.76941036469721     -0.95350687389696     -0.03099209087539
