66
Coordinates from ORCA-job ./opt_b3lyp_cdz
  N   -4.68671356270019     -1.07761870231211     -0.13253933953237
  C   -5.48357195678921      0.04676279366337     -0.13983570869572
  C   -6.88981834572144     -0.00830761554466     -0.27807190648219
  C   -7.69702922350875      1.13421472228867     -0.33385386691552
  C   -7.15740594470281      2.41636776395390     -0.25651511091367
  C   -5.77142984443395      2.50450246589155     -0.10061437791494
  N   -5.01552450384460      3.67834420067460     -0.02820410241635
  C   -3.78718936298738      3.28965548829803      0.06003242119792
  N   -3.62181668562037      1.88952036616057      0.06910157645613
  C   -4.94260335571739      1.35849279831929     -0.02284310778040
  C   -2.38106664163090      1.31007183373311      0.29342844645395
  N   -2.36444290110292      0.10872949358328      0.90748016499140
  C   -1.22503365190377     -0.51757954328806      1.21695995148392
  N   0.00015089609443      0.10581126837971      0.95877583268717
  C   0.00025825094607      1.30609622875163      0.33663985377911
  C   -1.17308976119463      1.96696414032442     -0.07480404054832
  C   -0.69485045084512      3.10650153683565     -0.82526954308338
  C   0.69561058030401      3.10626279231784     -0.82549508508026
  C   1.17369972144997      1.96653125620644     -0.07523044744898
  C   2.38156723694219      1.30918758242089      0.29254935192065
  N   3.62244520499581      1.88818542955048      0.06777091968036
  C   4.94300341291868      1.35667985602774     -0.02466088060847
  C   5.77221162067645      2.50238786167483     -0.10280103987860
  N   5.01675923253746      3.67650425545128     -0.03011412431843
  C   3.78831902965453      3.28826037330647      0.05862016107424
  H   2.92931051451558      3.94068254140125      0.18833945920029
  C   7.15809271061214      2.41374696386223     -0.25926126661365
  C   7.69722008986161      1.13139619019535     -0.33677887560237
  C   6.88961959696914     -0.01083307259408     -0.28062592881589
  C   5.48345028615835      0.04475044533513     -0.14181240647602
  N   4.68618745780160     -1.07934176848567     -0.13411957197577
  C   5.06562666211186     -2.41596465324166     -0.32096247230707
  C   6.01485362585321     -2.95755485362337     -1.18138523180654
  N   5.94233688529280     -4.33078229263231     -1.05666296202908
  C   4.97516744697864     -4.67456959400891     -0.14861012716821
  C   4.40918496786392     -3.50940706479726      0.33169041491529
  H   3.60677068587787     -3.42415386338824      1.06163630475316
  H   4.77039721794014     -5.71384431140970      0.09337399390478
  H   6.54168009274116     -4.98159824503311     -1.54347124208628
  H   6.69746361094272     -2.49112820382195     -1.88313402043555
  H   3.79290030450381     -0.94530607285920      0.34179123166923
  H   7.35668337037125     -0.99352898258821     -0.32140344336033
  H   8.77685423732391      1.00122564743525     -0.44448409562488
  H   7.76309215275186      3.31804154677600     -0.32356042945102
  N   2.36472792188816      0.10784705342266      0.90659922063123
  C   1.22520008359992     -0.51803751771634      1.21650378279711
  N   1.20886866017095     -1.73781130389058      1.77061935703000
  C   -0.00009436536387     -2.25908168698381      2.01378624808343
  N   -1.20895328377161     -1.73735803964868      1.77107313497473
  H   -0.00019767362375     -3.25534248359297      2.46784025746886
  H   1.31192859930047      3.83668613794165     -1.34433119989827
  H   -1.31108475261802      3.83713715625597     -1.34390487143870
  H   -2.92789764346584      3.94176540944217      0.18943464507202
  H   -7.76210612680984      3.32088194878078     -0.32054087997908
  H   -8.77675368283484      1.00443778169733     -0.44112484059772
  H   -7.35725187220708     -0.99083382714921     -0.31870424776482
  C   -5.06671248309463     -2.41409208118762     -0.31930731173353
  C   -6.01651716970621     -2.95528186537356     -1.17934457402813
  N   -5.94443988527179     -4.32854399791488     -1.05474825076209
  C   -4.97698818366748     -4.67274163195632     -0.14715160997720
  C   -4.41036101126489     -3.50781596008716      0.33296410255353
  H   -3.60758204654050     -3.42290679061995      1.06254901360912
  H   -4.77248272025811     -5.71210658494195      0.09466916423315
  H   -6.54422777260397     -4.97911132278376     -1.54134106068289
  H   -6.69928027510775     -2.48855940055642     -1.88074770923627
  H   -3.79317080067299     -0.94392844677862      0.34299089918792
