21
Coordinates from ORCA-job ./opt_b3lyp_cdz
  C   -4.22267911189496      0.36960677348569      0.00043262154249
  N   -3.17296769430375     -0.63228144051886      0.00008287657394
  C   -1.85049262876182     -0.38841183638786      0.00010324129943
  N   -1.44477813120427      0.89990673764821      0.00005779144792
  C   -0.13812234758718      1.11237358899676     -0.00002402835645
  N   0.36170990272978      2.35949506561773     -0.00011801511507
  C   1.69023830203838      2.46045376148096     -0.00014969695236
  N   2.61121682398959      1.49276217258937     -0.00010620846956
  C   2.14386432236005      0.23865818600987     -0.00003021387491
  N   2.97446861317680     -0.80824383960813      0.00000638586984
  C   2.39575705767082     -2.01461770924964      0.00007675120311
  N   1.10298550439467     -2.32833273622191      0.00011463247257
  C   0.23984218586394     -1.29595630269495      0.00007716470754
  N   -1.06579527777743     -1.49522714742384      0.00010971885655
  N   0.75444336842394      0.02014093724609      0.00000683780750
  H   3.08708014059059     -2.86578336581099      0.00010713854369
  H   2.08426129449500      3.48374757588355     -0.00022935618564
  H   -3.41508867084265     -1.61765813835252      0.00032037694890
  H   -3.75424621145169      1.36065149601164     -0.00145218248824
  H   -4.85705931115322      0.26942074514527      0.89709371749849
  H   -4.85958967600158      0.26707523435927     -0.89413696387382
