40
Coordinates from ORCA-job ./opt_b3lyp_cdz
  S   -7.10243179088308     -0.96422884334547      0.00039026602896
  C   -5.36132642397413     -1.05718474565161     -0.00051952256057
  C   -4.85781435024974      0.21983566167441      0.00012840517892
  N   -3.61949056762723      0.87006031763494     -0.00006043295775
  N   -3.78553123811006      2.24292056988656      0.00098767593828
  C   -5.07388158719313      2.48118149828848      0.00178028604642
  C   -5.84417714777619      1.26003706021507      0.00133081813420
  C   -7.13336916049437      0.76981520957643      0.00163741080574
  H   -8.08092818003698      1.30329576480920      0.00247683774098
  H   -5.42450056117484      3.51228640080290      0.00265452086709
  C   -2.36054949221251      0.30327669940118     -0.00085459129137
  N   -2.36804518526631     -1.04479539400553     -0.00184369900719
  C   -1.22965546023840     -1.74219625184365     -0.00261462083979
  N   -1.21056563738973     -3.08269577355787     -0.00353906046758
  C   0.00016902762179     -3.65371429291130     -0.00418087930493
  N   1.21086486332968     -3.08261320079234     -0.00397538088608
  C   1.22986425116674     -1.74211268278681     -0.00305852836805
  N   2.36820627400234     -1.04463428532778     -0.00269830436806
  C   2.36061924311592      0.30343698014165     -0.00170513502383
  N   3.61952150605639      0.87030548181569     -0.00136802003859
  N   3.78546977629318      2.24317693204798     -0.00039273007434
  C   5.07380414062923      2.48152513181683     -0.00007962721505
  C   5.84418190021963      1.26043255293267     -0.00080580921690
  C   7.13340747170934      0.77029737008879     -0.00092726299362
  S   7.10258578066950     -0.96374939809526     -0.00218661119435
  C   5.36148660758168     -1.05682180725888     -0.00242349010993
  C   4.85788867568662      0.22016433981065     -0.00163781286233
  H   4.83479649475292     -2.00499748424880     -0.00313474936996
  H   8.08093155996791      1.30384120023111     -0.00041879924693
  H   5.42435398241986      3.51265370372712      0.00066163154743
  C   1.16976957817809      1.06877880869011     -0.00107678453671
  C   0.00003592758106      0.28406925786850     -0.00155678485355
  C   -1.16975083269922      1.06869940612387     -0.00065091842174
  C   -0.69547779208266      2.43332032586502      0.00048140862074
  C   0.69540425497681      2.43336743312345      0.00020957386160
  H   1.34005039364774      3.30692719299945      0.00081761144974
  H   -1.34018345778984      3.30683626111505      0.00133796992431
  N   0.00008155532592     -1.06671478107734     -0.00248098967667
  H   0.00020607736294     -4.74945711424148     -0.00495583300323
  H   -4.83457300539684     -2.00532549954295     -0.00144006945534
