40
Coordinates from ORCA-job ./opt_b3lyp_cdz
  S   -7.42302062794191     -0.50894575105210      0.00074476999289
  C   -5.80341567721283     -1.15092408725922      0.00106740429702
  C   -4.85880125846441     -0.12769611027230      0.00063745948267
  N   -3.62242005034553     -0.75772661991292      0.00097484651724
  N   -3.76139741652843     -2.12510515753300      0.00158190241274
  C   -5.06247253855378     -2.36592951562778      0.00164582956445
  H   -5.41680684734701     -3.39493716239279      0.00210346621020
  C   -2.35869618021377     -0.17823857977659      0.00071146540128
  N   -2.36766320259839      1.16676958361953      0.00013061800785
  C   -1.23006106328477      1.86627978861966     -0.00021029179374
  N   -1.21054472177025      3.20575489797502     -0.00080380611685
  C   -0.00003342460115      3.77764875640209     -0.00110352875787
  N   1.21050213421151      3.20580631220255     -0.00091429157855
  C   1.23007533279968      1.86633197160421     -0.00032283363772
  N   2.36770725126225      1.16687016574300     -0.00008697340567
  C   2.35879737679820     -0.17813838026089      0.00049377523634
  N   3.62254583141535     -0.75757287865403      0.00064137486746
  N   3.76158120211085     -2.12494551666935      0.00124191228089
  C   5.06266651924846     -2.36571477978721      0.00118811488713
  C   5.80355812291112     -1.15067797485787      0.00056017777531
  C   4.85890030770867     -0.12749001515947      0.00019730934140
  C   5.40575394393920      1.19167165725557     -0.00047823435097
  C   6.77514969043999      1.12707297012931     -0.00064990086976
  S   7.42313580118601     -0.50863103648949      0.00011832432933
  H   7.47274205391677      1.96330729541857     -0.00115838881363
  H   4.81878982418284      2.10584898760960     -0.00083986488776
  H   5.41704440568175     -3.39470741430923      0.00162253820457
  C   1.17081807220203     -0.94374515771057      0.00091707247770
  C   0.00005016752987     -0.15858070241844      0.00065948869895
  C   -1.17068432704672     -0.94379493444030      0.00102408647604
  C   -0.69471363445641     -2.30895905602826      0.00153872892831
  C   0.69490547442330     -2.30892950887397      0.00148195154663
  H   1.34147991674631     -3.18077125294112      0.00180888199065
  H   -1.34125092903965     -3.18082832025875      0.00191970864419
  N   0.00002151200881      1.18967314007027      0.00006005200109
  H   -0.00005672098703      4.87320478982784     -0.00158200534705
  C   -5.40571087082455      1.19144240531037      0.00003386027757
  C   -6.77510388902171      1.12678573647791      0.00000743835135
  H   -7.47273166023938      1.96299057289502     -0.00040116136779
  H   -4.81878549534531      2.10564458512509     -0.00035825117390
