50
Coordinates from ORCA-job ./opt_b3lyp_cdz
  N   9.01803454312176      0.57146929808913     -0.08196862698232
  C   7.65366276261138      0.26923654816236     -0.01326691250000
  C   6.70063338360999      1.32593344877842     -0.01747172757916
  C   5.32956001209593      1.10379778214621     -0.01423703058988
  C   4.89245217268250     -0.23093593473657     -0.01009941615321
  N   3.62376222681637     -0.83274850011270     -0.00555625057121
  N   3.72552481756738     -2.20268531856764     -0.00110011183308
  C   5.00779923628110     -2.48195816614591     -0.00202167710539
  C   5.82030553297506     -1.29589479578737     -0.00782010038170
  C   7.20320855868808     -1.05522174774370     -0.00726160431020
  H   7.91350732787350     -1.88598707088070     -0.00580572392350
  H   5.32892888534957     -3.52302591588067      0.00076822266730
  C   2.36575209464641     -0.24848876741208     -0.00479916882059
  N   2.36688388234307      1.09833217970145     -0.00542128597771
  C   1.22956355756643      1.79568359819844     -0.00494776771542
  N   0.00009564118036      1.12091233825205     -0.00373644094843
  C   0.00010795268541     -0.22882039796297     -0.00301587913676
  C   -1.17186317890038     -1.01263664681504     -0.00183900498265
  C   -0.69494174028841     -2.37673490706132     -0.00130770703293
  C   0.69519685905804     -2.37672274093696     -0.00233676134161
  C   1.17209335251526     -1.01261604089938     -0.00333120275968
  H   1.33990813780214     -3.24958414948959     -0.00228372121191
  H   -1.33963706457437     -3.24960762642037     -0.00039462904728
  C   -2.36553590286534     -0.24853003490411     -0.00120377902477
  N   -3.62353532808569     -0.83281165637090      0.00019989252355
  N   -3.72527275641864     -2.20275431215551     -0.00279674987474
  C   -5.00754202524416     -2.48204959054915     -0.00156878428387
  C   -5.82007001031264     -1.29599573627967      0.00300941179670
  C   -7.20297749516757     -1.05534894486589      0.00223309797844
  C   -7.65345620614165      0.26910659920623      0.00684837131269
  N   -9.01783165423384      0.57138645912369      0.07526201380860
  H   -9.26849981026565      1.47210321299862     -0.32293242169342
  H   -9.62879141523474     -0.15959837173839     -0.27828226389961
  C   -6.70044609399298      1.32582495815750      0.00991154481579
  C   -5.32936874028370      1.10371125840860      0.00687563004511
  C   -4.89223625971712     -0.23101800805888      0.00413931087868
  H   -4.61719930591063      1.92460067987047      0.00599755123656
  H   -7.06559536154549      2.35672296137924      0.01922278645266
  H   -7.91326077065353     -1.88612861138585      0.00166882901918
  H   -5.32865257146820     -3.52312559066590     -0.00325694142427
  N   -2.36669222477302      1.09829079529060     -0.00202187737636
  C   -1.22938461006187      1.79566205832913     -0.00322382683788
  N   -1.21058735494614      3.13654202609052     -0.00416446252503
  C   0.00007203265035      3.70763245973155     -0.00509741539159
  N   1.21074184922793      3.13656345308839     -0.00542284057801
  H   0.00006203639673      4.80341919694438     -0.00566376308907
  H   4.61737535252441      1.92467444319490     -0.01424631365041
  H   7.06576397958834      2.35682774251253     -0.02786360060277
  H   9.26867525055990      1.47261221974550      0.31527791628781
  H   9.62899885566875     -0.15912844887259      0.27236719313283
