48
Coordinates from ORCA-job ./opt_b3lyp_cdz
  O   -8.95220707586058     -0.61837346889353      0.00253659464871
  C   -7.63354212974169     -0.26085569851408      0.00220583339005
  C   -6.69702519012111     -1.32418025378722      0.00167751017215
  C   -5.32714922336552     -1.09858333748570      0.00129504344530
  C   -4.89341321081654      0.23916739463366      0.00146953109013
  N   -3.62520230422575      0.84006305847776      0.00118006230769
  N   -3.72469649735948      2.20937998629521      0.00150688321117
  C   -5.00654271753155      2.49132248008067      0.00196170033387
  C   -5.81838253977799      1.30649560281150      0.00198217613502
  C   -7.20343034487540      1.06317060227350      0.00235707847416
  H   -7.91862154365642      1.89066772901024      0.00275203282146
  H   -5.32689629163840      3.53250409814082      0.00226578455634
  C   -2.36577334073272      0.25431146712361      0.00082364143924
  N   -2.36776885885525     -1.09149216073009      0.00041214596163
  C   -1.23032351324554     -1.78957604152705      0.00007962587583
  N   -0.00122464859396     -1.11428156369753      0.00011623918783
  C   -0.00106855612483      0.23502101604487      0.00050570894293
  C   1.17077575245960      1.01896755106722      0.00067484026236
  C   0.69382075094701      2.38316219769119      0.00119705868026
  C   -0.69610547587548      2.38325720958988      0.00135155117266
  C   -1.17320063793526      1.01911497450098      0.00089799460253
  H   -1.34042123793248      3.25635315658324      0.00171283412631
  H   1.33828284773376      3.25619901518572      0.00143030980712
  C   2.36370751708305      0.25440296337950      0.00037170962788
  N   3.62248679131607      0.83894278088744      0.00047420219342
  N   3.72493697542759      2.20897560965648      0.00088713005788
  C   5.00618876193809      2.48955407527727      0.00091699260111
  C   5.81869566340410      1.30332276643291      0.00052499115163
  C   7.20102166889605      1.06396015252931      0.00038641308207
  C   7.63157846673866     -0.26090759572602     -0.00004214278561
  C   6.69453223982072     -1.32228007316908     -0.00032579001653
  C   5.32102952244938     -1.09900820249197     -0.00019378298186
  C   4.89028318885940      0.23630381282250      0.00024011872034
  H   4.60669983358347     -1.91779112076619     -0.00041218207427
  H   7.06269666452925     -2.35318215933824     -0.00066012594805
  O   8.97886470036910     -0.48959728697042     -0.00017529843926
  H   9.13442217011963     -1.44541383333816     -0.00049235524223
  H   7.93171540405941      1.87411707403254      0.00060089470921
  H   5.32823284229519      3.53014342071742      0.00121832750368
  N   2.36541917000882     -1.09188738168043     -0.00003992854422
  C   1.22786187533724     -1.78967794132617     -0.00016334513752
  N   1.20916632633641     -3.13003272535900     -0.00055044380710
  C   -0.00145338811350     -3.70163936259692     -0.00060131297401
  N   -1.21177066131096     -3.12987564042572     -0.00030288523382
  H   -0.00160821050478     -4.79730838872712     -0.00092222760153
  H   -4.61213734008961     -1.91684473621610      0.00087608462512
  H   -7.08776323916292     -2.34344121101889      0.00156921719707
  H   -9.49491489896426      0.18403847724023      0.00290417107188
