50
Coordinates from ORCA-job ./opt_b3lyp_cdz
  N   7.15930049817156      2.51231040107481     -0.10576843352913
  C   6.68831092192634      1.20576874743306     -0.02847140595618
  C   7.61835851030052      0.12695014395330     -0.01659334282084
  C   7.19163636447171     -1.19048924895048     -0.00150119353975
  C   5.81145225170221     -1.45663265748043      0.00007303491935
  C   4.99827673536419     -2.63678913910978      0.01366770291822
  N   3.71692027185848     -2.35811413516757      0.01250884502195
  N   3.62306964725090     -0.97826445838094     -0.00139488837343
  C   4.89178454417412     -0.37974702413704     -0.01059379317901
  C   5.30573659184577      0.95619006475566     -0.02287402365284
  H   4.57860153445234      1.76454488779189     -0.02878652431886
  C   2.36677243770696     -0.39153196617634     -0.00159584124821
  N   2.36617528236784      0.95602440031212     -0.00178143730701
  C   1.22942382869017      1.65308292780720     -0.00235159700328
  N   1.21083778595557      2.99463796791496     -0.00196948589885
  C   0.00004497496654      3.56534330911192     -0.00376265326245
  N   -1.21074232378720      2.99462512513270     -0.00513578693948
  C   -1.22931538530534      1.65307049260816     -0.00377146033879
  N   -2.36606019977065      0.95600085677392     -0.00381225985510
  C   -2.36664427350402     -0.39155532125451     -0.00298621726768
  N   -3.62293577825858     -0.97830008364947     -0.00271402325116
  N   -3.71677350888847     -2.35816036135295     -0.01562881157908
  C   -4.99812725834455     -2.63684894987644     -0.01648293572672
  C   -5.81131367531501     -1.45669132287152     -0.00366826366374
  C   -7.19150025752977     -1.19056064983305     -0.00217963675596
  C   -7.61823444104282      0.12688477617281      0.01200833082110
  C   -6.68819707800381      1.20572105587026      0.02304747869037
  N   -7.15919409731746      2.51231228602928      0.09944989379750
  H   -8.08752072807014      2.66716544175481     -0.28070317438583
  H   -6.50199396564592      3.22876852410184     -0.19300733585753
  C   -5.30562047398498      0.95615233694177      0.01751909828090
  C   -4.89165603623645     -0.37978897178972      0.00616134112652
  H   -4.57849333088970      1.76451867891817      0.02279553609122
  H   -8.68760594290754      0.35401198472788      0.02112903181814
  H   -7.91731755988612     -2.00682969234908     -0.01214944724352
  H   -5.31809239166952     -3.67849571888373     -0.02632461007762
  C   -1.17214517197709     -1.15458133529552     -0.00286415404750
  C   0.00006409884032     -0.37079954722204     -0.00232796646842
  C   1.17228079834986     -1.15456949666139     -0.00118153082151
  C   0.69498103890222     -2.51887257440673     -0.00107230774948
  C   -0.69483253156169     -2.51887956238496     -0.00192272961329
  H   -1.34051185217905     -3.39088466014171     -0.00224686455994
  H   1.34066862612762     -3.39087104211899     -0.00008246851804
  N   0.00005750279167      0.97877821379676     -0.00282428171864
  H   0.00003965913876      4.66122365689950     -0.00416679230893
  H   5.31825163719970     -3.67842542003548      0.02427387133131
  H   7.91746097821785     -2.00674377694280      0.00910582136447
  H   8.68772835783739      0.35408203081723     -0.02579410697099
  H   8.08759259289151      2.66744577364151      0.27435413378565
  H   6.50206723987379      3.22896696043117      0.18612321324211
