50
Coordinates from ORCA-job ./opt_b3lyp_cdz
  N   4.86880823842628      2.01552855579852      0.69131286237313
  C   5.55446994679588      0.89639879796147      0.28829115104381
  C   4.96105910122312     -0.36655017550464     -0.01499122729440
  N   3.62701504311731     -0.86479119880829     -0.07306005329077
  N   3.62214388051140     -2.22140203437641     -0.32359319951120
  C   4.86866970770341     -2.58926745105732     -0.44373167924692
  C   5.78006567072880     -1.49601985996216     -0.27113410645099
  C   7.18070001945747     -1.43384728494047     -0.30432356206187
  C   7.75861196499258     -0.19347915769748     -0.06158614052568
  C   6.96608056869693      0.92499471491325      0.22391000539914
  H   7.45438613133925      1.88090570434239      0.43371615614844
  H   8.84486111953721     -0.07829892283908     -0.08074436048775
  H   7.77783004160671     -2.32364469850011     -0.50780491224386
  H   5.10493589293521     -3.63210502964296     -0.65344578118316
  C   2.37706262626299     -0.26215214329648     -0.03781077516424
  N   2.35873253714535      1.08732976365328     -0.04155477712568
  C   1.22276677701052      1.78513080433082     -0.01720431298241
  N   -0.00001212854150      1.11083180521986     -0.00208930029884
  C   -0.00009220200848     -0.23922801770227     -0.00191042798441
  C   -1.17500140602305     -1.02004166338027      0.01947973787085
  C   -0.69440064841648     -2.38343195289717      0.01164828154322
  C   0.69399621632001     -2.38350932969644     -0.01470513039019
  C   1.17473416553176     -1.02017394502895     -0.02301268715736
  H   1.33526109077349     -3.25765294274097     -0.03215291199547
  H   -1.33575682159760     -3.25750080506424      0.02937180423452
  C   -2.37724717208709     -0.26187426058142      0.03412349370241
  N   -3.62728083477448     -0.86432665204382      0.06958595745346
  N   -3.62259971206777     -2.22090183276632      0.32033079938004
  C   -4.86916049923058     -2.58851424039790      0.44087105655885
  C   -5.78040052108678     -1.49511373228877      0.26840390910153
  C   -7.18101586321269     -1.43267408725900      0.30203558955570
  C   -7.75875247732920     -0.19223139206655      0.05924056575965
  C   -6.96608913739736      0.92602613416416     -0.22675708958480
  C   -5.55450003324278      0.89714694337992     -0.29161721561307
  N   -4.86876431049219      2.01604639817388     -0.69518882235583
  H   -5.38289360365651      2.88733092161050     -0.63035633261283
  H   -3.88513921370923      2.05419425136186     -0.42008431191183
  C   -4.96125126469653     -0.36585042358263      0.01178365043691
  H   -7.45427891711071      1.88198301689626     -0.43662404775486
  H   -8.84497205082120     -0.07682713904783      0.07872590037495
  H   -7.77825371394943     -2.32231640556859      0.50587726483516
  H   -5.10556564128218     -3.63127539135947      0.65080941633817
  N   -2.35875408161653      1.08760540458000      0.03746965450270
  C   -1.22271374840609      1.78527242914363      0.01290460347965
  N   -1.20926595136963      3.12653125973828      0.00559082844112
  C   0.00013368706016      3.70079332113370     -0.00237584647739
  N   1.20946839615822      3.12639240839328     -0.01020161698109
  H   0.00019570840893      4.79618856272216     -0.00251349548078
  H   3.88534600546313      2.05377218280905      0.41568662296595
  H   5.38312999401997      2.88669319167174      0.62638761286829
