48
Coordinates from ORCA-job ./opt_b3lyp_cdz
  O   -8.01805191068830     -1.96639074169717      0.00066778437626
  C   -7.19209474081770     -0.88385100421697      0.00078065456488
  C   -5.80437490206778     -1.12412412394724      0.00045212156827
  C   -4.99518627024907     -2.30630215356917      0.00001420378742
  N   -3.71571889425563     -2.01971168502379     -0.00014400700565
  N   -3.62411420432336     -0.64453207994457      0.00017033675598
  C   -4.89144148587415     -0.04458958797366      0.00054751631737
  C   -5.31912782397677      1.29427088772225      0.00096006687923
  C   -6.69668429194200      1.49908143751684      0.00128139433108
  C   -7.62799826593956      0.43955469637613      0.00119905560035
  H   -8.70002654877392      0.65815458680930      0.00146285992955
  H   -7.07561282150311      2.52380033036037      0.00160838465591
  H   -4.60685149538889      2.11340904982456      0.00100881074220
  C   -2.36486022129733     -0.05531409728986      0.00013812362293
  N   -2.36655243765423      1.28993407868741      0.00032750210867
  C   -1.22921903348103      1.98812050500379      0.00035020252085
  N   -1.21043155767943      3.32837214622366      0.00055080602567
  C   0.00002527421938      3.90004015081816      0.00054748922279
  N   1.21048324943279      3.32837467683616      0.00038249800245
  C   1.22927358543584      1.98812310927141      0.00018504847965
  N   2.36660846050214      1.28993911376467      0.00001945017044
  C   2.36491906025846     -0.05530904299808     -0.00017534318596
  N   3.62417440006043     -0.64452406692952     -0.00032444007569
  N   3.71578250807170     -2.01970348786881     -0.00048767589264
  C   4.99525059631136     -2.30629066691607     -0.00060401397278
  C   5.80443630269960     -1.12411056702891     -0.00052138745020
  C   7.19215553726533     -0.88383401057786     -0.00059423248984
  C   7.62805584901038      0.43957285912439     -0.00048124697730
  C   6.69673925858919      1.49909728387602     -0.00029820857705
  C   5.31918319390274      1.29428326996656     -0.00022125595803
  C   4.89150018862045     -0.04457832029264     -0.00033821757370
  H   4.60690501562147      2.11341981848774     -0.00007537799301
  H   7.07566508851503      2.52381727161892     -0.00021305283812
  H   8.70008364878534      0.65817528535206     -0.00053531618711
  O   8.01811531976088     -1.96637170961963     -0.00077158946829
  H   8.93718508064672     -1.65861285436275     -0.00080260796109
  H   5.31941906245384     -3.34506241893787     -0.00074149456103
  C   1.17238399185045     -0.82012175976250     -0.00022297724037
  C   0.00002939051835     -0.03607113077299     -0.00004915353160
  C   -1.17232347349419     -0.82012429798270     -0.00007435466978
  C   -0.69477242999141     -2.18439720280655     -0.00028106727358
  C   0.69483595413735     -2.18439567956434     -0.00036545770431
  H   1.33947517639698     -3.05716479885830     -0.00051729087430
  H   -1.33940991459819     -3.05716764444974     -0.00036397995961
  N   0.00002795980861      1.31272021727595      0.00015491866343
  H   0.00002413514298      4.99571450934339      0.00070673887733
  H   -5.31935206532763     -3.34507475723812     -0.00018823472088
  H   -8.93712239059413     -1.65863414672986      0.00092869723920
