46
Coordinates from ORCA-job ./opt_b3lyp_cdz
  F   -4.57529498937858     -1.90639534384230      0.82883846199743
  C   -5.37681558376393     -0.88028216993811      0.51973515475121
  C   -4.88775965293073      0.38104883572286      0.12602345029038
  N   -3.62051517514842      0.94350691841425     -0.06638148924200
  N   -3.71197345829738      2.29015438029281     -0.32361028139163
  C   -4.98704230016664      2.59023710094815     -0.32259277123471
  C   -5.81014075700916      1.44622075786594     -0.05160483959156
  C   -7.19707883368424      1.26004334846502      0.07771433790801
  C   -7.65561293187306     -0.00751418537417      0.40681833175793
  C   -6.74820460985393     -1.06197140243547      0.63364381031316
  H   -7.10076466385738     -2.05172817303349      0.92915527141204
  H   -8.72539349878457     -0.19667102984471      0.51471795193602
  H   -7.88540002395567      2.09432354951342     -0.06821621040697
  H   -5.30096144692929      3.61512224399432     -0.51591922923619
  C   -2.36007880049434      0.34405424935303     -0.18299054671653
  N   -2.36875732251228     -0.97640455508777     -0.39569875390183
  C   -1.23130599647285     -1.67041009496437     -0.49991414175061
  N   0.00031370196211     -1.00030101039772     -0.40680755824767
  C   0.00009671314143      0.33422606508886     -0.22515913318945
  C   1.17189781495381      1.10837058834705     -0.09702593543371
  C   0.69489313846916      2.45543599111522      0.11559274197183
  C   -0.69526152278819      2.45536030331498      0.11481513508419
  C   -1.17190105296833      1.10828342116600     -0.09846526858748
  H   -1.33734652301924      3.32217394190502      0.23642729634742
  H   1.33674495289707      3.32230944744986      0.23797009862671
  C   2.36026186348313      0.34430539611196     -0.18008964647577
  N   3.62051949690473      0.94401618465343     -0.06210175343440
  N   3.71201512354661      2.29061615822756     -0.31942600251720
  C   4.98701855153619      2.59099988973276     -0.31677061943339
  C   5.81000131759012      1.44724308767308     -0.04444951472677
  C   7.19682148971592      1.26127942370220      0.08666166277097
  C   7.65516901167045     -0.00613491111796      0.41644693021437
  C   6.74769224636352     -1.06078280668008      0.64222189389395
  C   5.37643308243338     -0.87934858452235      0.52652399098294
  C   4.88762494799249      0.38188209257857      0.13211684160122
  F   4.57470421268836     -1.90557834592046      0.83472513274569
  H   7.10005545818711     -2.05044424898557      0.93827663082287
  H   8.72485120016395     -0.19505374218369      0.52574529436334
  H   7.88518879338125      2.09565253375634     -0.05853326691825
  H   5.30094280248072      3.61593030835418     -0.50984851919217
  N   2.36937438434481     -0.97619387003973     -0.39269892707365
  C   1.23209989781675     -1.67028813944086     -0.49834663372877
  N   1.21133184928666     -2.99265658648796     -0.70440099301926
  C   0.00066852242671     -3.55680992014447     -0.79654309314805
  N   -1.21016781099028     -2.99277618911521     -0.70596692741369
  H   0.00085074294202     -4.63868722139047     -0.96913588317997
