18
Coordinates from ORCA-job ./opt_b3lyp_cdz
  C   4.68242685597034     -0.00007599796715      0.00058963238668
  C   3.46975347930235     -0.00032197714450     -0.00013631145836
  C   2.03176526107249     -0.00018202111261     -0.00042355443239
  N   1.44237833067656      1.20659194837256     -0.00023979979491
  C   0.10818302170698      1.21844262064652     -0.00009473484571
  N   -0.57388350293884      2.37019769943568      0.00000783235688
  C   -1.90438223369053      2.26685353148181      0.00013526136257
  N   -2.66037920577169      1.16659405265163      0.00018429413172
  C   -2.00497485786434      0.00024099731462      0.00007151474745
  N   -2.66062369048626     -1.16597592323206      0.00011998404738
  C   -1.90485814336446     -2.26639290506251      0.00000848770771
  N   -0.57437988255217     -2.37001637807474     -0.00012049769204
  C   0.10792675734746     -1.21840471661488     -0.00015859848663
  N   1.44212612443341     -1.20683222376018     -0.00030183270414
  N   -0.59782989882103      0.00009281464388     -0.00007204417309
  H   -2.45253617955295     -3.21574926242006      0.00006150564182
  H   -2.45186140226939      3.21632458765253      0.00023514635100
  H   5.75595009445781     -0.00031799894431      0.00090451508015
