52
Coordinates from ORCA-job ./opt_b3lyp_cdz
  F   -9.86914435868125     -0.65631664989732     -0.00313503247624
  C   -9.08824216786705      0.44645670639677      0.01284365704651
  C   -7.62032140730663      0.11124260919807      0.00483506510760
  C   -6.68830238228176      1.17703145530976      0.03004195547100
  C   -5.31724935175271      0.95537359398719      0.02351576916694
  C   -4.88877271045190     -0.38395077389617     -0.00939931814536
  N   -3.62530457322366     -0.98183006236956     -0.02487598137247
  N   -3.72161224628338     -2.35401171144667     -0.05803241563290
  C   -5.00067584921934     -2.63995456221772     -0.06396172735505
  C   -5.81269016318273     -1.45559403485281     -0.03464760441668
  C   -7.19500299937836     -1.21065649912465     -0.02754348800915
  H   -7.91406168677856     -2.02966293116557     -0.04669790110482
  H   -5.32022851813427     -3.68088254344959     -0.08896565532071
  C   -2.36237465435913     -0.39342487665487     -0.01097907750136
  N   -2.36620041494477      0.94972123976836      0.02112291380746
  C   -1.22844792412017      1.64922777834634      0.03790847022095
  N   -0.00001263544891      0.97239901732646      0.02177312736810
  C   -0.00000547656788     -0.37529146038007     -0.01058051835014
  C   1.17224559085635     -1.15967553396632     -0.02913307673907
  C   0.69463962280179     -2.52377139576025     -0.06175882957529
  C   -0.69462786265361     -2.52377327042667     -0.06199086873983
  C   -1.17224836800606     -1.15968058009447     -0.02944844539728
  H   -1.33793846162368     -3.39730782656820     -0.08297707799409
  H   1.33795942952429     -3.39730404152700     -0.08254299416118
  C   2.36236430704504     -0.39341537878801     -0.01034574098723
  N   3.62529990541937     -0.98181663956162     -0.02387544213086
  N   3.72162124424578     -2.35399594261544     -0.05709908959937
  C   5.00068688588655     -2.63993384900528     -0.06272158287229
  C   5.81269037765786     -1.45557210530031     -0.03313805320152
  C   7.19499927612603     -1.21063264925163     -0.02562332305486
  C   7.62030534284200      0.11126521223461      0.00699416010417
  C   6.68827716721075      1.17704715277316      0.03208860459731
  C   5.31722484133716      0.95538727457619      0.02514658396328
  C   4.88876176937556     -0.38393316174522     -0.00804660494020
  H   4.60021104924196      1.77129432963793      0.04436358742684
  H   7.05946341916496      2.20318063780534      0.05788563477609
  C   9.08822448310168      0.44648841584918      0.01506517735914
  F   9.86912577807170     -0.65632434596023      0.00213582118520
  F   9.43038754606767      1.16694634506067      1.10987959238909
  F   9.43566376474528      1.19570966065448     -1.05863074831691
  H   7.91406704388557     -2.02963557399388     -0.04461709507178
  H   5.32025025304306     -3.68085874333201     -0.08771628112496
  N   2.36617558265802      0.94973046506296      0.02177588362155
  C   1.22841579876014      1.64923227883014      0.03825117876409
  N   1.20997039875098      2.98760315591700      0.07025976529764
  C   -0.00002608637254      3.56081854205478      0.08374112584023
  N   -1.21001664199525      2.98759874660223      0.06991660454487
  H   -0.00003174134775      4.65585479517330      0.10985870090629
  H   -4.60023747146536      1.77128082335605      0.04281267321297
  H   -7.05950180532091      2.20316856717167      0.05553121285359
  F   -9.43105842783692      1.16428285947647      1.10919135679412
  F   -9.43503075281447      1.19826266148239     -1.05924380973373
