17
Coordinates from ORCA-job ./opt_b3lyp_cdz
  C   -4.63849134243776      0.00005653447637      0.00020723156576
  N   -3.45352454566542      0.00004874009192      0.00001133149881
  C   -2.06931598847239      0.00002973384128     -0.00006938964764
  N   -1.50303236879674     -1.20607305120304     -0.00011023536330
  C   -0.16507827230318     -1.21972639499485     -0.00009997124366
  N   0.51335828055116     -2.36862292813900     -0.00016517236573
  C   1.84632615807155     -2.26673433788326     -0.00015469298381
  N   2.59989120356889     -1.16656038694151     -0.00007020994466
  C   1.94483877913806     -0.00002543070624     -0.00000931740230
  N   2.59992323877915      1.16649157599405      0.00007100586022
  C   1.84638845992591      2.26668620189134      0.00010920824954
  N   0.51342335369026      2.36861143572014      0.00008968286219
  C   -0.16504478323690      1.21973360633632      0.00002620775864
  N   -1.50299923771756      1.20611695248842      0.00001067821154
  N   0.53771487168694     -0.00000610119032     -0.00003037712542
  H   2.39266998512858      3.21651087338607      0.00017405385328
  H   2.39258161510976     -3.21657400481222     -0.00019357378800
