65
Coordinates from ORCA-job ./opt_b3lyp_cdz
  N   -5.00429725211523     -1.22386777925487      0.15561602651023
  C   -5.80033119415076     -0.11190629935589      0.08776875270851
  C   -7.20865316786805     -0.18694194376814     -0.01485077882581
  C   -8.04316960006228      0.93748889010995      0.00375903406362
  C   -7.52492834618222      2.22080486219990      0.13153493329856
  C   -6.12815610415322      2.33307036622132      0.19762494283865
  C   -5.26977813045863      3.47522605340169      0.32560450295920
  N   -4.00627891914045      3.15268087227348      0.33931502108703
  N   -3.94512728154739      1.77585967689631      0.21882634847436
  C   -5.26047302319363      1.21582750333118      0.14499293456652
  C   -2.66918494952554      1.25964305024810      0.07462652920662
  N   -2.58135497849133     -0.06029675668065     -0.20889371848404
  C   -1.42576912475527     -0.69004822600918     -0.38918285676974
  N   -1.36099219621457     -2.00734739892700     -0.65490227111976
  C   -0.12908627061077     -2.51364952816690     -0.81240113341874
  N   1.05074738125645     -1.89020751943620     -0.74101993405610
  C   1.01213656326634     -0.57462801591708     -0.47419940344858
  N   2.11572467112885      0.16454011413506     -0.37158159894706
  C   2.08080313453608      1.48802994867234     -0.09405661700142
  N   3.30271133633110      2.14359000904497     -0.04192081647502
  N   3.22184781682976      3.52318950863419     -0.02226297715098
  C   4.44100085386948      3.97496081525343     -0.12404498291952
  C   5.40876643487864      2.92084642830823     -0.21098274426842
  C   4.66110831600419      1.71910231203832     -0.14079217960197
  C   5.33642617592822      0.45792708199652     -0.10621619970527
  N   4.66804928664385     -0.73354680601803      0.07897406541533
  C   5.17852385412310     -2.00489935947803      0.30647119790543
  C   4.57413190676426     -3.17891780004769     -0.09069897767274
  C   5.21929227349962     -4.34458677803994      0.42432285846244
  C   6.30808276032801     -4.06482381312133      1.20348016906090
  S   6.56305642762677     -2.34418163181915      1.35797507198813
  H   7.00875191415969     -4.75312006934053      1.67147448536080
  H   4.89210735797608     -5.36086686661997      0.20013137113297
  H   3.67968412092412     -3.18785861713424     -0.71452534057946
  H   3.65803532074302     -0.67947206924539     -0.10454249014352
  C   6.73882792099935      0.51906132314488     -0.25190665755214
  C   7.45537285166331      1.71956921114494     -0.35011315052582
  C   6.80716220184192      2.94680832856703     -0.31504856863919
  H   7.34854135888302      3.89251171930786     -0.36274851154139
  H   8.54204454137717      1.67276070109914     -0.45008281913111
  H   7.28851502774982     -0.42072719747071     -0.28537691861403
  H   4.61862457219232      5.04990056482669     -0.13695772892209
  C   0.84957737416724      2.16790992214841      0.10552395771184
  C   -0.29278144311235      1.34805545215044     -0.01801521912107
  C   -1.49631308621575      2.05440603775980      0.19281058373258
  C   -1.06922779226370      3.40764061182534      0.46991365994359
  C   0.31609746974982      3.47511162947501      0.41794939883572
  H   0.92151905652499      4.36051138571653      0.57551238870130
  H   -1.74509053544946      4.22960794414063      0.67757368699579
  N   -0.23405518182128      0.02744554757338     -0.30074154419570
  H   -0.08432792792357     -3.58609555152728     -1.02780047298415
  H   -5.55867154712091      4.52303307029921      0.40403444600322
  H   -8.16238991380047      3.10457586267403      0.17677938572562
  H   -9.12239776226486      0.78699607149831     -0.07478063394047
  H   -7.65386827584032     -1.17381414756976     -0.12088805889400
  C   -5.33361151989034     -2.57607594951788      0.09575816086024
  N   -4.34897173910644     -3.43935068385203     -0.33675479690476
  C   -4.80564002468474     -4.73994700908584     -0.26477948132369
  C   -6.10131608752080     -4.70509534420754      0.20531354411019
  C   -6.44464102394232     -3.33742130558621      0.44390313442256
  H   -7.37530896627595     -2.97145134000677      0.86483175085301
  H   -6.74404714110140     -5.56705928831414      0.36946019228372
  H   -4.17142961321934     -5.57194587352718     -0.55721694806553
  H   -3.41197328640430     -3.14539741375011     -0.60794201777497
  H   -4.00638562595078     -1.00948274054460      0.05041630810537
