52
Coordinates from ORCA-job ./opt_b3lyp_cdz
  F   7.98322405984370      2.39639787667864     -1.03927959256432
  C   8.16622507252479      1.57272359635439      0.02232359421826
  C   7.19648688298590      0.42326868506869      0.00163443730926
  C   5.81065627939591      0.68132415477706      0.01016598329716
  C   4.99958456646199      1.86643847967605      0.03405784447261
  N   3.72086688604814      1.57701646280186      0.03192717094368
  N   3.62471235772169      0.20685517115622      0.00699613596597
  C   4.89027353652284     -0.39095263964611     -0.00727824939302
  C   5.31616203830903     -1.73091380128387     -0.03329414894139
  C   6.68917247240975     -1.95493573257533     -0.04140069886016
  C   7.62453459460731     -0.89749546080331     -0.02432232868678
  H   8.69249666222406     -1.11602384202780     -0.03150943310226
  H   7.05635501600647     -2.98314883115060     -0.06162647744983
  H   4.59457273074329     -2.54314260027927     -0.04625959940725
  C   2.36242009173849     -0.38205294257993     -0.00212400353508
  N   2.36606011570354     -1.72580499668417     -0.02544521466787
  C   1.22846436027294     -2.42523762340288     -0.03732521564959
  N   1.21008530176570     -3.76408845787395     -0.06069317180870
  C   0.00003189743871     -4.33710914491293     -0.07065672552914
  N   -1.21004280370010     -3.76412900355487     -0.06094579349064
  C   -1.22847111217197     -2.42527905151270     -0.03756249966277
  N   -2.36609288567346     -1.72588546398968     -0.02587035442081
  C   -2.36250402526487     -0.38213408099705     -0.00251304661443
  N   -3.62481834886731      0.20673070149672      0.00643103491037
  N   -3.72102336178089      1.57688082689213      0.03170040049979
  C   -4.99974993317322      1.86626495287318      0.03348489709510
  C   -5.81078321747365      0.68113164988963      0.00906238175857
  C   -7.19660142898236      0.42301727550663     -0.00001763225252
  C   -7.62458182928653     -0.89775249714978     -0.02678552922599
  C   -6.68917676151695     -1.95514978411146     -0.04398623025454
  C   -5.31617956978516     -1.73107778026763     -0.03515675507530
  C   -4.89035609460015     -0.39111127103514     -0.00842442760043
  H   -4.59455070695261     -2.54327087499357     -0.04814535323057
  H   -7.05631199299920     -2.98336612686998     -0.06489195042990
  H   -8.69253214106275     -1.11631766397743     -0.03458310867456
  C   -8.16645621464629      1.57234393873128      0.02230002287225
  F   -7.97810934561159      2.40204196971504     -1.03369685509778
  F   -9.45114004199967      1.16606044603161     -0.00886353258358
  F   -8.00951650981482      2.33335686255758      1.13354427099379
  H   -5.32271848145969      2.90489989215175      0.05156474200217
  C   -1.17223428077923      0.38385394423953      0.01180827067698
  C   -0.00004165687296     -0.40067940202748     -0.00136868140394
  C   1.17212180449397      0.38389435469942      0.01198382537579
  C   0.69452720900620      1.74821134565863      0.03520450347038
  C   -0.69469006395168      1.74818728850974      0.03510561503811
  H   -1.33805525697864      2.62181199460126      0.05002666589556
  H   1.33785958179465      2.62185886865080      0.05020507020223
  N   -0.00001617885578     -1.74856451301104     -0.02515833378287
  H   0.00005216001670     -5.43235049824202     -0.08960745147446
  H   5.32252635824354      2.90508229289138      0.05215488074537
  F   8.00362175359577      2.34005905088909      1.12844204443278
  F   9.45104408478618      1.16631489466295     -0.00012151690273
