60
Coordinates from ORCA-job ./opt_b3lyp_cdz
  C   -5.32360945344307     -3.19516453449171     -0.67346837934262
  N   -4.73361673828690     -1.88140439388130     -0.53486810953966
  C   -5.49981268338261     -0.75617590297145     -0.33874540539715
  C   -6.90265823443510     -0.78744661766041     -0.48655568084931
  C   -7.73067353926419      0.34925398030683     -0.36410571894644
  N   -9.11726726446772      0.20319448223195     -0.47348706763986
  H   -9.60721108613151      1.05710342124132     -0.72466153844558
  H   -9.41419362077095     -0.56996929074229     -1.06217791720988
  C   -7.16592032902125      1.59866273290967     -0.07361894417910
  C   -5.78171422795254      1.65210215666516      0.09093282951750
  N   -5.03132789924401      2.80481441325390      0.35103562412917
  C   -3.79995089926460      2.41411544233237      0.37089228109567
  N   -3.62577549217684      1.03384327525111      0.15131241293521
  C   -4.94651106122311      0.51687269563656     -0.01618180720564
  C   -2.38394848598882      0.43225156911144      0.25688850106285
  N   -2.36402768161968     -0.87259865013094      0.60254641637351
  C   -1.22438520919219     -1.54806054969662      0.77063270418002
  N   -0.00006418904919     -0.88349978078469      0.65448982156893
  C   -0.00007561378472      0.42243233694011      0.30021416963250
  C   -1.17425257601521      1.15296995010163      0.03359601394820
  C   -0.69574760918469      2.42126449878217     -0.46696614743873
  C   0.69550255301386      2.42119769634689     -0.46717512414983
  C   1.17407129470134      1.15287107179826      0.03323825659755
  C   2.38378396178395      0.43206054189647      0.25616072053888
  N   3.62562064264512      1.03356668997853      0.15020287901663
  C   4.94626713585507      0.51650218263607     -0.01770469762062
  C   5.78158521484979      1.65166176178089      0.08921394496003
  N   5.03136522265031      2.80442291646834      0.34957941316388
  C   3.79996376275650      2.41381810416925      0.36978154788685
  H   2.94557430774933      3.04300689687671      0.60172323258909
  C   7.16573906595352      1.59811507100056     -0.07574289846043
  C   7.73029633806084      0.34867131875193     -0.36644481547259
  N   9.11684597270621      0.20249521350973     -0.47623516812848
  H   9.60679149609322      1.05637350942986     -0.72751033545424
  H   9.41353457061149     -0.57066600295628     -1.06504932034453
  C   6.90215440338498     -0.78796134480399     -0.48870755975062
  C   5.49935154171159     -0.75659116558929     -0.34049427157283
  N   4.73296802373246     -1.88169562303216     -0.53645388965659
  H   3.82990149408121     -1.84469853453015     -0.06150556953126
  C   5.32297446855417     -3.19539199839343     -0.67517280014765
  H   5.98998429535327     -3.47158134748367      0.16708396950380
  H   5.90909912010621     -3.27709510500145     -1.60728822709854
  H   4.51106102351769     -3.93492903131758     -0.72435536697696
  H   7.37903866589459     -1.74433904112637     -0.70523860849316
  H   7.76404759599781      2.50564046830425      0.01433372710012
  N   2.36388220725273     -0.87278990452946      0.60183590129312
  C   1.22424186183543     -1.54817048117320      0.77027489669677
  N   1.20938697511214     -2.86022410115190      1.04447440376109
  C   -0.00009095463962     -3.42090961045104      1.16831732434958
  N   -1.20955558648512     -2.86011746766838      1.04482654560815
  H   -0.00010538761676     -4.49262366690088      1.39450728029902
  H   1.30966025717271      3.24302414319777     -0.82736365499057
  H   -1.30994482745998      3.24314161460049     -0.82697129358117
  H   -2.94544656992076      3.04324863548110      0.60256002010160
  H   -7.76412457822181      2.50624323584635      0.01659591579579
  H   -7.37965960829937     -1.74381350070037     -0.70289538634559
  H   -3.83037623702141     -1.84443866591112     -0.06025582863272
  H   -5.99037847406858     -3.47139750018566      0.16896223298520
  H   -4.51163976886466     -3.93462068180524     -0.72286811036402
  H   -5.90997129714052     -3.27686581456704     -1.60543415672547
