74
Coordinates from ORCA-job ./opt_b3lyp_cdz
  C   3.76996290348468      3.43961860713995     -0.06323374992010
  H   3.16166679817219      3.20753069426531     -0.95267153937374
  H   3.96845728458667      4.52251518350054     -0.05421492735093
  H   3.18103416357938      3.18987700825944      0.83435115461655
  C   5.09532701325652      2.65312546674595     -0.09483239387318
  N   4.69214042525052      1.22900132210555     -0.10468202973355
  C   5.49730063510314      0.10810901293177     -0.10537983211547
  C   6.90797049553369      0.13717389436483     -0.22850969587031
  C   7.70109516074335     -1.01484162989865     -0.31760546087699
  C   7.14707166775186     -2.29041454363558     -0.28610392591405
  C   5.75824009275631     -2.36148847932935     -0.14967743094590
  N   4.98586188617808     -3.52619303058141     -0.14301092413844
  C   3.76165690818104     -3.12390323135860     -0.06279395927348
  N   3.61626741036339     -1.72331647045447      0.00710504605594
  C   4.94583675793475     -1.20655617427487     -0.03504927522166
  C   2.37974310397871     -1.14967967128942      0.26873276747788
  N   2.36681383775463     -0.00896759768827      0.98952099851707
  C   1.22622375775605      0.58421924934808      1.35649946449793
  N   1.20821096571440      1.74309583801698      2.02938238664906
  C   -0.00079697628540      2.23756819996267      2.32229145569520
  N   -1.20970900556979      1.74365579620203      2.02804708974141
  C   -1.22751554809448      0.58478351301737      1.35515269586082
  N   -0.00060841137879     -0.00902710487158      1.03686532162611
  C   -0.00046833062505     -1.14279474527258      0.30199120608509
  C   1.17250280364636     -1.76401104354325     -0.16629442692062
  C   0.69517931514221     -2.83143787515113     -1.01688487794245
  C   -0.69545211085490     -2.83115121873015     -1.01760377902625
  C   -1.17321328289672     -1.76346664935059     -0.16758325043047
  C   -2.38064827098799     -1.14856938058829      0.26610038451969
  N   -3.61713140302773     -1.72171358171154      0.00318967210439
  C   -4.94646911473094     -1.20444679799067     -0.04046343309303
  C   -5.75918113102117     -2.35910226697244     -0.15575486248904
  N   -4.98724425484739     -3.52409231700454     -0.14816136485487
  C   -3.76297414315900     -3.12225099608380     -0.06674289663625
  H   -2.89185754255162     -3.76652264259576      0.01671403681099
  C   -7.14784678620647     -2.28754918445586     -0.29360385073931
  C   -7.70138356985838     -1.01178549937420     -0.32582430483505
  C   -6.90793296875753      0.13995669135668     -0.23613743106941
  C   -5.49739034116858      0.11041030241430     -0.11164336137709
  N   -4.69184174199839      1.23102299761338     -0.11031656902660
  H   -3.81047951784123      1.06564650495901      0.37760478523733
  C   -5.09452316371791      2.65529721363294     -0.10132231017227
  C   -5.91551334584653      3.03081213590026      1.15254114467233
  H   -6.87035774209853      2.48892941722467      1.21029928425078
  H   -5.34337327706200      2.80081063482326      2.06572762964706
  H   -6.14165884058406      4.11011572744699      1.15348039595521
  C   -5.83797932319493      3.03595830789364     -1.39740841010659
  H   -5.99037285641913      4.12694621223127     -1.43041310475978
  H   -6.82486971122728      2.56240852649634     -1.48830644027890
  H   -5.24232612670476      2.74355825328888     -2.27653321285335
  C   -3.76891341399891      3.44129458774383     -0.06783895643736
  H   -3.96701300615935      4.52426768975235     -0.05925355162956
  H   -3.15936619425312      3.20886741391387     -0.95633163139865
  H   -3.18143503863594      3.19144248485173      0.83066681401210
  H   -7.40825568043496      1.10331558340843     -0.26743221664007
  H   -8.78241823924595     -0.88917347487264     -0.42723873967667
  H   -7.74064827928985     -3.19760082824246     -0.38358977275272
  N   -2.36797666329613     -0.00787112086102      0.98691547362554
  H   -1.31353283288937     -3.51214096662807     -1.59820209376776
  H   1.31358145939485     -3.51268840757335     -1.59683380735991
  H   -0.00088222512230      3.18358141753567      2.87375759555450
  H   2.89021231991915     -3.76785541160439      0.01968846169585
  H   7.73963548469560     -3.20066614720732     -0.37563127522967
  H   8.78227076823942     -0.89260065890404     -0.41796056180567
  H   7.40866112892897      1.10036363774739     -0.25924776670222
  H   3.81011212159979      1.06381283635739      0.38210330775657
  C   5.84089934060550      3.03365436523366     -1.38973585231801
  H   5.99379053749081      4.12458363100294     -1.42236552074263
  H   5.24646466671377      2.74160891786570     -2.26980253545528
  H   6.82774096135300      2.55970388395228     -1.47918997636024
  C   5.91456849612399      3.02816496392078      1.16031976873218
  H   6.14107845435319      4.10739124955630      1.16176751647041
  H   6.86913649964197      2.48595433715593      1.21941940119531
  H   5.34098308947994      2.79821320633970      2.07261109852632
