60
Coordinates from ORCA-job ./opt_b3lyp_cdz
  C   -4.11110813117826     -3.82047991012022     -0.46664010218664
  C   -5.21146554116810     -2.77683062378261     -0.58213685800195
  O   -6.33165727607909     -3.06377652974729     -0.97809975813482
  N   -4.80222535098593     -1.50041025728513     -0.23417930021226
  C   -5.55370353923330     -0.31938631203862     -0.23394807854760
  C   -6.95086857866303     -0.32333798829815     -0.42818336146358
  C   -7.71678176330473      0.84915625029911     -0.41583013482362
  C   -7.13596541019219      2.09626752120222     -0.20767362104499
  C   -5.75373215717868      2.12763081881440     -0.01818599915317
  N   -4.97394219696018      3.27026628848428      0.17689729899094
  C   -3.75858853317372      2.84652610521669      0.24909585161297
  N   -3.62238131726786      1.44558964343664      0.12922238596029
  C   -4.95772990930166      0.95296511587767     -0.02587728890588
  C   -2.38349794506508      0.83575766782616      0.25722397823060
  N   -2.36451235655915     -0.44217690621341      0.68880933874216
  C   -1.22405994148139     -1.10357865523139      0.91102282382701
  N   -0.00015582144906     -0.44971743124640      0.74321506805921
  C   0.00000268166274      0.82286956504648      0.29020253352343
  C   1.17458870626917      1.53299126272174     -0.02634929129142
  C   0.69491561218273      2.76182618844516     -0.61960951349661
  C   -0.69444220435900      2.76201880325878     -0.61955664281517
  C   -1.17441053099143      1.53331691289903     -0.02625959299762
  H   -1.30749179660772      3.55492860331143     -1.04082913019412
  H   1.30815412984756      3.55456528131440     -1.04092897484018
  H   3.86001459775209     -1.39971746806125      0.14975021222738
  N   4.80175861693288     -1.50165291094451     -0.23472745832681
  C   5.21071989885988     -2.77812156057658     -0.58283033433381
  O   6.33075352555223     -3.06520891846298     -0.97914068468887
  C   4.11014632259189     -3.82155334799908     -0.46743461697227
  H   4.57389117077077     -4.78408512415812     -0.21187121946167
  H   3.62596971360058     -3.93842585454279     -1.45254366955607
  H   3.33689294754308     -3.56438466019333      0.27197190903867
  C   5.55345906425476     -0.32077171503867     -0.23451902442861
  C   6.95060119446993     -0.32500409254368     -0.42891509435474
  C   7.71676310748096      0.84732571509063     -0.41659227935477
  C   7.13623208218967      2.09454776068298     -0.20831615196645
  C   5.75402705567000      2.12619462132885     -0.01867264991454
  N   4.97451131415463      3.26899442080215      0.17653214602793
  C   3.75907287789364      2.84552243661968      0.24884084512744
  N   3.62253887455040      1.44461962033435      0.12894746074324
  C   2.38350770330131      0.83510020985001      0.25703632088089
  N   2.36419982166021     -0.44282422193810      0.68863875230272
  C   1.22358084896916     -1.10391074097293      0.91094095432651
  N   1.20708050477354     -2.38777553703063      1.29111227699651
  C   -0.00047161478919     -2.94007168769674      1.46104512643513
  N   -1.20788511508694     -2.38744814225569      1.29119336986189
  H   -0.00060325068048     -3.98917193360579      1.77360270058383
  C   4.95776805164364      0.95169768723251     -0.02631786846642
  H   2.88935006210062      3.46259409213952      0.45323406239849
  H   7.70828508645769      3.02266294306342     -0.19958197033668
  H   8.79425179205090      0.76615523049600     -0.57573934710544
  H   7.42223725214739     -1.28847963894711     -0.60065035579899
  H   -2.88870783253063      3.46340899226602      0.45338379695491
  H   -7.70782262950953      3.02450308551493     -0.19891217912959
  H   -8.79430590802989      0.76820512194815     -0.57484889579058
  H   -7.42272720321819     -1.28672249263506     -0.59981654899148
  H   -3.86041854999670     -1.39862949350234      0.15018889546286
  H   -3.33782564931213     -3.56340314964586      0.27276906302289
  H   -4.57504634064642     -4.78290455310545     -0.21102706353330
  H   -3.62691413723105     -3.93749859350296     -1.45172219711841
