70
Coordinates from ORCA-job ./opt_b3lyp_cdz
  N   4.91220759534737      0.85528714131265      0.19129760314519
  C   5.57369802171692     -0.22116078019419     -0.36076399177494
  C   4.91553709034795     -1.45254292420889     -0.67378094783466
  N   3.58135997159502     -1.93889982592076     -0.55772904340309
  N   3.51832066790389     -3.27913057908822     -0.88860740256094
  C   4.72508622717260     -3.64227311511074     -1.22585761028557
  C   5.66581927170729     -2.56449872288329     -1.13216357247282
  C   7.04536473102346     -2.50578709770984     -1.37740883801810
  C   7.66911266577518     -1.28517413343505     -1.15457224280583
  C   6.95218587557997     -0.18437367679300     -0.66597081281529
  H   7.47898420776565      0.75627723910901     -0.51179296324771
  H   8.73684932449480     -1.16789594044010     -1.35346193342087
  H   7.59162524857530     -3.38341055978329     -1.72556961462314
  H   4.91209712977134     -4.66980816872302     -1.53641267277513
  C   2.35056690956449     -1.33057339842495     -0.34602458813999
  N   2.33557597845395      0.02008202702100     -0.34052067643741
  C   1.21340658317607      0.72164458806670     -0.17282856142801
  N   0.00102523788135      0.04950257294760     -0.00382978622001
  C   -0.00139741892148     -1.30063823619325     -0.00254607332390
  C   -1.16422121412893     -2.07964745253072      0.17350514702800
  C   -0.69120574734787     -3.44425752265267      0.10475740313561
  C   0.68078584505048     -3.44690758628476     -0.10561548681227
  C   1.15864894202947     -2.08413238441029     -0.17706024707559
  H   1.31215322225841     -4.32237553120277     -0.20879232393797
  H   -1.32570293720725     -4.31725780450050      0.20964318682620
  C   -2.35343642793357     -1.32149910248751      0.34105494592585
  N   -3.58640025168316     -1.92498636080323      0.55387857942231
  N   -3.52823342257235     -3.26490888135130      0.88690530645766
  C   -4.73626671705286     -3.62306616511924      1.22493311845629
  C   -5.67304947305809     -2.54198652168271      1.12968221774736
  C   -7.05233725525413     -2.47785173650800      1.37500746912086
  C   -7.67165507670260     -1.25532768510762      1.15027930160637
  C   -6.95077273643160     -0.15794805809153      0.65982069443733
  C   -5.57244526508290     -0.20024744471653      0.35457357694658
  N   -4.90716700906599      0.87296233765041     -0.19922394841634
  C   -5.42459479766247      2.00968872714305     -0.83730584732032
  C   -4.65825764838245      3.19289938396747     -0.78463279325067
  C   -5.08264178072657      4.34155136687918     -1.45174885290381
  C   -6.27950747468518      4.34680740260258     -2.17664070627452
  C   -7.03491526882672      3.17242845893466     -2.24240205760279
  C   -6.61631719772306      2.01060594426675     -1.58957109249981
  H   -7.20223909546942      1.09670714549341     -1.68955460436880
  H   -7.96191398029352      3.15038213370992     -2.82140396026113
  H   -6.61424708097325      5.25086541838542     -2.68979289653847
  H   -4.47141778879817      5.24622416936845     -1.39744368645719
  H   -3.71845148866712      3.19196389008298     -0.22625775247670
  H   -3.89705652956541      0.86385449531156     -0.02656063781640
  C   -4.91875077031456     -1.43352313483584      0.66944521304097
  H   -7.47412907117685      0.78437648353613      0.50419675067115
  H   -8.73892933444112     -1.13382406571171      1.34911495994290
  H   -7.60174450917974     -3.35291697515684      1.72465150252059
  H   -4.92701831976059     -4.64941294048732      1.53713844069596
  N   -2.33361849497292      0.02908540651539      0.33290478224866
  C   -1.20893864640059      0.72630378346703      0.16391667405364
  N   -1.19279025125911      2.06731677923397      0.15470173012763
  C   0.00568134046345      2.64114143929802     -0.00625222372531
  N   1.20208346878282      2.06272173615160     -0.16612864186044
  H   0.00764571791566      3.73601748078352     -0.00727262392806
  C   5.43371342594737      1.99051480788759      0.82866701816679
  C   4.67193745671131      3.17661518587120      0.77514439416451
  C   5.10074595630635      4.32402001651556      1.44158797157037
  C   6.29754932804192      4.32509497967732      2.16660952192320
  C   7.04842125885560      3.14784929837797      2.23320228517874
  C   6.62535481425428      1.98728398377386      1.58104120247730
  H   7.20751305047105      1.07102896918025      1.68141102774117
  H   7.97526309279644      3.12257806010820      2.81232312953638
  H   6.63571801380817      5.22817858431451      2.67922804283930
  H   4.49304905099801      5.23102895029229      1.38666218915392
  H   3.73217593794787      3.17897179549977      0.21669355941049
  H   3.90211511704739      0.84967999685870      0.01836164500339
