54
Coordinates from ORCA-job ./opt_b3lyp_cdz
  N   -9.11114663891774     -0.01925527305259     -0.47583279651283
  C   -7.72477496715024      0.14062780166297     -0.38178279050073
  C   -7.17229060757932      1.37441016681312     -0.00348588634511
  C   -5.78768305376243      1.43993227222870      0.14167083363284
  N   -5.04559241668290      2.57811523412676      0.47790057201778
  C   -3.80913577196791      2.20130394734694      0.45024388733407
  N   -3.62314229111386      0.84476655544155      0.12414598150211
  C   -4.93798496766816      0.32740765900854     -0.06680988757614
  C   -5.47506701067923     -0.91586207988079     -0.48668249364104
  N   -4.70935109624762     -2.01503382913933     -0.83107024120592
  H   -5.22928688103858     -2.88704786877961     -0.85603957614947
  H   -3.82916971938282     -2.08379655608041     -0.31605822126113
  C   -6.87764847376012     -0.96266380531256     -0.61050023254810
  H   -7.32712287831216     -1.91519404179049     -0.90787225314400
  C   -2.38179365019588      0.23562580982707      0.19273611687817
  N   -2.36586586885693     -1.08635750501959      0.46265984936150
  C   -1.22514302449068     -1.76963719788648      0.59331434942734
  N   0.00000584955745     -1.10019524528160      0.51128534211546
  C   0.00001966094256      0.22311307469043      0.23247158573137
  C   1.17368602320245      0.96875097517134      0.01145368818772
  C   0.69575129876932      2.26623051660095     -0.40820362499860
  C   -0.69571870097917      2.26627739497052     -0.40804722768252
  C   -1.17364611087626      0.96883114069528      0.01172069228586
  H   -1.31073805951034      3.10892987699702     -0.71496539632633
  H   1.31075766136208      3.10884177083403     -0.71526033479947
  C   2.38182513625468      0.23546366979286      0.19219564750515
  N   3.62319863076447      0.84452333586466      0.12333396926372
  C   4.93796765366735      0.32708301260224     -0.06791536226861
  C   5.78778076684434      1.43955431659929      0.14038305957865
  N   5.04583502465228      2.57778307241069      0.47677681947472
  C   3.80934893212051      2.20104933202125      0.44938987858617
  H   2.95826312215972      2.82194967766094      0.71463954374190
  C   7.17235253951784      1.37394783647964     -0.00507547735207
  C   7.72467866929504      0.14013315213384     -0.38349776064088
  N   9.11102005582228     -0.01983448430750     -0.47785060626288
  H   9.61718982473271      0.84313628007759     -0.65543657339784
  H   9.40750199565929     -0.74931944410520     -1.12022476958085
  C   6.87743414884554     -0.96310426478273     -0.61203662858832
  C   5.47488226719690     -0.91621737081010     -0.48791241084556
  N   4.70902770227872     -2.01534047788364     -0.83214342776960
  H   5.22890468007228     -2.88738591209181     -0.85723064372400
  H   3.82894770445567     -2.08405289319392     -0.31695169056903
  H   7.32678439422361     -1.91566030827271     -0.90951374569279
  H   7.78451874023154      2.26033507023564      0.16644299756341
  N   2.36586786332852     -1.08651907329260      0.46212143279479
  C   1.22512780005526     -1.76972083024773      0.59303513694539
  N   1.20949206648919     -3.09376622088123      0.79922054134444
  C   -0.00003797042794     -3.65999565214957      0.89349934573116
  N   -1.20955074697508     -3.09368356860258      0.79949650014919
  H   -0.00005549615035     -4.74196582217188      1.06401535599809
  H   -2.95795258578487      2.82215103092966      0.71530653779435
  H   -7.78436513396258      2.26083553717965      0.16816232292029
  H   -9.61730225235311      0.84374596684213     -0.65331088437979
  H   -9.40781303397487     -0.74872366172850     -1.11814063850166
