64
Coordinates from ORCA-job ./opt_b3lyp_cdz
  N   4.91841847449536      1.02925606423436      0.17261194160937
  C   5.60604545906590     -0.11234024914570     -0.15598846358717
  C   7.00821294016282     -0.11706391616629     -0.32928745967664
  C   7.75322684001452     -1.26950287753400     -0.61337332211890
  C   7.13861087060429     -2.50712699724659     -0.73973189174705
  C   5.74257361035284     -2.53489122074920     -0.60387370064363
  C   4.80827470773191     -3.61956447633622     -0.66284255925236
  N   3.57905159765683     -3.22689616354313     -0.47703434597507
  N   3.61802798707291     -1.85912571794339     -0.28693345901379
  C   4.96332681877134     -1.37988075255620     -0.34501740623233
  C   2.37339029110830     -1.25438870043772     -0.17513986547741
  N   2.35131871380152      0.09658525108289     -0.16939490453377
  C   1.21989757823285      0.79596145738908     -0.08359202794475
  N   1.20574913882106      2.13788030943647     -0.07694425553508
  C   0.00036550111298      2.71411215832554     -0.00081914437079
  N   -1.20517610016545      2.13819197339806      0.07517353927813
  C   -1.21969422924974      0.79627534782761      0.08150458351269
  N   -2.35130686967843      0.09718741666542      0.16714026324719
  C   -2.37374764597240     -1.25378328574138      0.17256459829895
  N   -3.61854108213141     -1.85823283626153      0.28420950694451
  N   -3.57988737391048     -3.22608800477625      0.47376445020996
  C   -4.80920568379284     -3.61855107959968      0.65936563280356
  C   -5.74325333490669     -2.53364276553469      0.60079886308340
  C   -4.96373398564824     -1.37869323718939      0.34248249031977
  C   -5.60617149246448     -0.11091956006617      0.15403094596777
  N   -4.91830145903111      1.03070923773824     -0.17392388433713
  C   -5.40227822215966      2.27835276505413     -0.55762417467080
  C   -6.62342691484503      2.69530719960467     -1.03806247290422
  O   -6.58066961741902      4.03661659830329     -1.32707727924379
  C   -5.32752753363863      4.46965746981615     -1.03335791425344
  C   -4.55850646858318      3.45193476169932     -0.55787641387211
  H   -3.51652527225553      3.48573187018226     -0.24675870330814
  H   -5.13624373544078      5.52424357804870     -1.20942213126479
  H   -7.56077778991795      2.20356724219042     -1.26369044602236
  H   -3.90140479249763      0.95430205207318     -0.07114011406895
  C   -7.00835130882992     -0.11542273218010      0.32725158443583
  C   -7.75363255214284     -1.26782649861366      0.61076989952644
  C   -7.13928945644944     -2.50563710686595      0.73660613618348
  H   -7.70212239132372     -3.41933186212913      0.93148571657456
  H   -8.83587810263532     -1.17503139635067      0.72698629722172
  H   -7.52862397612892      0.83738952544471      0.26359728101720
  H   -5.01834740171612     -4.67315819710789      0.83634444682183
  C   -1.17248165511132     -2.00934585955837      0.08748764824680
  C   -0.00017626740521     -1.22831008755215     -0.00129795494053
  C   1.17191728265625     -2.00964521392041     -0.09026952078835
  C   0.69127897965701     -3.37288164958221     -0.05503877611960
  C   -0.69221472563357     -3.37270570498364      0.05192456867432
  H   -1.33093672288902     -4.24676822516068      0.10503785622016
  H   1.32976146338879     -4.24710541487250     -0.10836930767808
  N   0.00000894166262      0.12218058791145     -0.00113008740539
  H   0.00051672917956      3.80899603858440     -0.00068568500319
  H   5.01716806069281     -4.67414588521593     -0.84026803800495
  H   7.70123990015283     -3.42085624673770     -0.93503868233809
  H   8.83548743083666     -1.17689239803103     -0.72959662152920
  H   7.52869996779647      0.83560225657528     -0.26518866872080
  C   5.40268156612802      2.27669012951864      0.55664447762454
  C   6.62392153972980      2.69319989698666      1.03723366205795
  O   6.58149644999228      4.03443668734711      1.32662372814172
  C   5.32846479583653      4.46787341751017      1.03301099354392
  C   4.55919678557258      3.45047603299253      0.55723414105018
  H   3.51722336343486      3.48461901396777      0.24612990027053
  H   5.13744208800752      5.52245569894937      1.20937684411510
  H   7.56114404853366      2.20115020256456      1.26272739723251
  H   3.90150470820922      0.95311667338130      0.06977810585139
