64
Coordinates from ORCA-job ./opt_b3lyp_cdz
  N   4.67061799750691      0.88894779852484     -0.06175938405409
  C   5.48122787363631     -0.23571043458050     -0.09074375475200
  C   6.88631925120605     -0.16439395393126     -0.19569509145296
  C   7.69975977231165     -1.30141035073382     -0.28433460739100
  C   7.16249338235452     -2.58613785078459     -0.26154344362320
  C   5.77495393557848     -2.68752434619684     -0.13173335735714
  N   5.02233545249483     -3.86505140277866     -0.11229388512117
  C   3.79147050096481     -3.48388336446061     -0.02973276274926
  N   3.62087023543680     -2.08454816112306      0.02444770017081
  C   4.94021987890279     -1.54768061440885     -0.02894996198404
  C   2.37910350597581     -1.51274084900108      0.26449767309913
  N   2.36347627146009     -0.33129565325681      0.91550580316192
  C   1.22421712892519      0.28609341273677      1.24649510147575
  N   -0.00017409166239     -0.32845394801823      0.96714849913883
  C   -0.00117214287602     -1.50751827710205      0.30669953259677
  C   1.17161341044276     -2.15694381400210     -0.12441959058554
  C   0.69230512636123     -3.27361328960448     -0.90827338076655
  C   -0.69775004122160     -3.27260090759883     -0.90797192836619
  C   -1.17508917669283     -2.15523135444937     -0.12391467426907
  C   -2.38147304809998     -1.50925828814600      0.26549977994680
  N   -3.62416715023663     -2.07926518851904      0.02596006122063
  C   -3.79681654657506     -3.47835686628259     -0.02806022792223
  N   -5.02826419268355     -3.85774631290382     -0.11011455997477
  C   -5.77918366121043     -2.67913211215919     -0.12932149500935
  C   -4.94276077977743     -1.54049293542647     -0.02691230232517
  C   -5.48189080387658     -0.22774333506418     -0.08858336276693
  N   -4.66963558041471      0.89573380911410     -0.05997097630190
  C   -5.02598628682605      2.22535762696490     -0.25099276238526
  C   -4.49502317470888      3.30094771013354      0.42780558889018
  C   -4.91691413251859      4.56031491716992     -0.09981526100496
  C   -5.76530086448691      4.44540749618165     -1.16653538639585
  S   -6.05142477027080      2.77401085034271     -1.58454409630613
  H   -6.27739400714466      5.23044273179970     -1.71899838893492
  H   -4.61463295486064      5.52031275212717      0.32100820342724
  H   -3.81332499543345      3.17823179519988      1.27063962405495
  H   -3.77452281508526      0.74558940199117      0.41503374779922
  C   -6.88691353907581     -0.15439719162606     -0.19303956838053
  C   -7.70203344160595     -1.29024002489023     -0.28131307648022
  C   -7.16662321122898     -2.57574386594519     -0.25862701539687
  H   -7.77796458346023     -3.47418205788977     -0.34316996701022
  H   -8.78205655081066     -1.15094430602528     -0.36703336645193
  H   -7.35085442573302      0.83129540386491     -0.20036379388033
  H   -2.93895571837018     -4.13854172229495      0.06440785661278
  N   -2.36384932846280     -0.32783779814628      0.91650129986502
  C   -1.22354694217792      0.28788646057735      1.24700634678632
  N   -1.20734691274227      1.48738531092489      1.84121640229068
  C   0.00177060060504      2.00062185228609      2.10178063408657
  N   1.21002449040298      1.48560937915061      1.84072234448617
  H   0.00259053586185      2.98092276114962      2.58902856340481
  H   -1.31399621123564     -3.98669881519866     -1.44908894392902
  H   1.30727246884974     -3.98860940643664     -1.44965826763979
  H   2.93269187696374     -4.14282849132985      0.06304531680239
  H   7.77249707109183     -3.48545983191898     -0.34635384569110
  H   8.77995300723631     -1.16367293527005     -0.37043047775843
  H   7.35166910872024      0.82063053074492     -0.20311306619481
  C   5.02884908803593      2.21805919238417     -0.25285046151498
  C   4.49985225126435      3.29439335639777      0.42630031274264
  C   4.92330458106502      4.55316766689323     -0.10148646559202
  C   5.77090967578420      4.43707118188077     -1.16869866273642
  S   6.05437907975121      2.76527837866655     -1.58692452269122
  H   6.28382835675857      5.22138711103219     -1.72141740997612
  H   4.62266363207281      5.51358804531638      0.31954799909437
  H   3.81842892106711      3.17263226802638      1.26949369562908
  H   3.77544533738077      0.74007154543069      0.41353086973831
