64
Coordinates from ORCA-job ./opt_b3lyp_cdz
  N   -4.70028021255212     -1.05815279795443     -0.22703764453963
  C   -5.05728748545837     -2.39659677974730     -0.31033680566413
  N   -4.21733309307828     -3.32559537988757      0.23804036080275
  N   -4.61660767491832     -4.60212759232700      0.02339857899151
  C   -5.74840418128276     -4.47244792076239     -0.66368737165616
  C   -6.08556782400044     -3.11737762031560     -0.91405766469602
  H   -6.92265522225219     -2.73308589899593     -1.48646081946105
  H   -6.29494580230434     -5.36318010923633     -0.97055863970786
  H   -3.34876283358594     -3.13511170930461      0.73257949431064
  C   -5.50687477382339      0.06066672510806     -0.16021955507838
  C   -4.95894512152270      1.36744446441298     -0.02275396012771
  N   -3.63512619393283      1.90943036907365      0.05945709846978
  C   -3.81811468601705      3.30894082660303      0.12754703989853
  N   -5.05077942918280      3.68527368258286      0.09215425804843
  C   -5.79828439717783      2.50801903720249     -0.01595646593708
  C   -7.18827750007377      2.41617043166271     -0.11299076822079
  C   -7.72829245620742      1.13548792874561     -0.21224161153632
  C   -6.91546406439494     -0.00358076501027     -0.23278060145535
  H   -7.37927238291568     -0.98655745162408     -0.28789763677449
  H   -8.81085540092020      1.00449439426454     -0.27552325007070
  H   -7.79882030482783      3.31892608006095     -0.10985997429221
  H   -2.96484909302422      3.96574206585640      0.26684962634760
  C   -2.38517131787663      1.33265952237949      0.20138259297040
  N   -2.35365000989984      0.05417951887285      0.63861217155581
  C   -1.22001820539676     -0.61542118913183      0.83673800067024
  N   -1.20789041902193     -1.91634545672417      1.17047417100651
  C   -0.00044296650515     -2.47856127301467      1.31597792997474
  N   1.20718678873148     -1.91682272815692      1.17015424753278
  C   1.21973605651463     -0.61589724317006      0.83643408152317
  N   2.35357558842878      0.05326733738146      0.63803331565417
  C   2.38550736559819      1.33171039065591      0.20073264034119
  N   3.63565019041058      1.90797432832494      0.05835312084901
  C   3.81914611568775      3.30743338215973      0.12607359570058
  N   5.05191311878333      3.68335183074472      0.08995808676560
  C   5.79897012413866      2.50583047411925     -0.01831330645575
  C   4.95925884316076      1.36552138347811     -0.02438916301175
  C   5.50672537172457      0.05852528021425     -0.16174830679565
  N   4.69979669922450     -1.06008052077209     -0.22756490877472
  C   5.05624612196244     -2.39862452718798     -0.31128314140788
  N   4.21619881499064     -3.32736621935283      0.23739215487389
  N   4.61487495270326     -4.60403258637384      0.02240064312539
  C   5.74638287819055     -4.47470272748024     -0.66522289465372
  C   6.08395729569896     -3.11973184031467     -0.91558919390735
  H   6.92092794409025     -2.73571671841387     -1.48834522145185
  H   6.29243895904845     -5.36560525513057     -0.97246472928532
  H   3.34797545713134     -3.13660386622808      0.73243012995337
  H   3.75648553217425     -0.88766891334255      0.13274634932860
  C   6.91525526258994     -0.00616843108121     -0.23512010019268
  C   7.72844216362178      1.13265419305348     -0.21536685948793
  C   7.18888022896436      2.41352533806605     -0.11611238442353
  H   7.79970093283996      3.31609460575272     -0.11354418456606
  H   8.81092845842835      1.00130896119227     -0.27923062058971
  H   7.37873636051092     -0.98930181383002     -0.29018657264887
  H   2.96616746059603      3.96454788599282      0.26567583791116
  C   1.17567980217751      2.03388404901624     -0.07293814762877
  C   0.00016859581158      1.32242478979252      0.24380688525688
  C   -1.17513769561526      2.03435072842671     -0.07263295146245
  C   -0.69434882448171      3.26498217881262     -0.66011023203469
  C   0.69523118260099      3.26470093819994     -0.66030118718981
  H   1.30662487037229      4.05997439550017     -1.07931762870899
  H   -1.30553230594059      4.06049786989313     -1.07897403761462
  N   -0.00003185822982      0.04085674998447      0.68162403236888
  H   -0.00061934869885     -3.54082326230245      1.57902740372265
  H   -3.75673052129519     -0.88612207690704      0.13284113045485
