64
Coordinates from ORCA-job ./opt_b3lyp_cdz
  N   -4.76563744385735     -1.07290254671143      0.22618316021835
  C   -5.16319754289345     -2.39780693146795      0.22649600159415
  N   -6.34039041405908     -2.91841583983828      0.52288248560066
  C   -6.16848342341123     -4.28559059148028      0.38514751291944
  C   -4.88366487093771     -4.58520680933162      0.01037026356672
  N   -4.23706589871278     -3.35980145594511     -0.08883807405592
  H   -3.27748693164035     -3.18557552191465     -0.38210966776481
  H   -4.37410799168813     -5.52301545526378     -0.18814121762290
  H   -6.98995644793661     -4.97415500817102      0.57076436998938
  C   -5.54045759084838      0.07055787930256      0.22083870932710
  C   -6.94225458112941      0.03310259399730      0.40215112407184
  C   -7.72890346355232      1.18876747880776      0.39417924317014
  C   -7.17280901259838      2.45371054165642      0.20377489862151
  C   -5.79037903094101      2.51542418042583      0.02704734388727
  N   -5.03448644578894      3.67551023741493     -0.17538581517151
  C   -3.81091280681070      3.28121112035000     -0.25525031970005
  N   -3.63909549383775      1.88208252696496     -0.12988761545302
  C   -4.96850556237135      1.36107347747656      0.03542828027548
  C   -2.39023421697407      1.29834393489493     -0.21290084698241
  N   -2.35194614351108     -0.02260569841449     -0.50672402586385
  C   -1.22085022248651     -0.70740262009202     -0.63032732868871
  N   -0.00009471077146     -0.03988472820834     -0.55031955176189
  C   -0.00022364533386      1.28295534557099     -0.25514464349022
  C   -1.17680755901036      2.02331884663827     -0.01442428146059
  C   -0.69512045716782      3.30652427787742      0.44554809839693
  C   0.69416333211158      3.30658776989492      0.44586805705137
  C   1.17617873393470      2.02341622645616     -0.01384839942523
  C   2.38977192773426      1.29856259107488     -0.21173392542170
  N   3.63850057161980      1.88250955283381     -0.12809688428888
  C   3.80998934528994      3.28170043952723     -0.25319751254489
  N   5.03339316404618      3.67635343201955     -0.17258767687362
  C   5.78951463411197      2.51646965106189      0.03012207546498
  C   4.96800055505081      1.36184436383432      0.03780831084729
  C   5.54031631705074      0.07148221797205      0.22330757734285
  N   4.76599284286443     -1.07230762987074      0.22784065177321
  C   5.16417044702431     -2.39702651476091      0.22810367580014
  N   6.34136088968019     -2.91716598375120      0.52532655936615
  C   6.17021386932246     -4.28438033512670      0.38704653362083
  C   4.88585905894503     -4.58448772957192      0.01107010029774
  N   4.23876881133432     -3.35935877948751     -0.08833576400792
  H   3.27936832664176     -3.18548940209481     -0.38242115251320
  H   4.37692017496248     -5.52247608839767     -0.18817709677054
  H   6.99185296616922     -4.97261335602338      0.57315800700422
  H   3.80491204277807     -0.91114274335492     -0.08587985089917
  C   6.94201021504286      0.03449298309800      0.40551818847050
  C   7.72826556114936      1.19042320410772      0.39824818938387
  C   7.17185520585881      2.45519889412715      0.20769406887428
  H   7.76460213373801      3.36993516416879      0.19922929956482
  H   8.80576861409311      1.08713539147125      0.54539045995556
  H   7.39154568972005     -0.94685511706057      0.55242321897190
  H   2.95793015724788      3.91907367262463     -0.46625995394203
  N   2.35173864086394     -0.02238394322538     -0.50560745743449
  C   1.22076131929756     -0.70728565722973     -0.62974687088310
  N   1.20790814081569     -2.04031289712857     -0.81951071524628
  C   0.00010611247573     -2.61184122798941     -0.90425367367133
  N   -1.20778806159263     -2.04042487238032     -0.82010779631279
  H   0.00019258003955     -3.69628114001839     -1.05350851738783
  H   1.30290153467579      4.14075646983530      0.78462116339965
  H   -1.30408976006114      4.14063352969490      0.78402773664793
  H   -2.95893360074734      3.91879655048607     -0.46798033540672
  H   -7.76586615393095      3.36824074158848      0.19478877510270
  H   -8.80646240540923      1.08513446564915      0.54066802482488
  H   -7.39153745807856     -0.94837189882421      0.54897913952335
  H   -3.80436592900774     -0.91137721107330     -0.08677529908258
