24
Coordinates from ORCA-job ./opt_b3lyp_cdz
  C   -3.71409838195937     -1.23522180662155      0.00078759109393
  N   -2.94120432326823     -0.00000298771546      0.00008890199080
  C   -1.58892567974214     -0.00000310585093      0.00008559711838
  N   -0.97299411490837      1.20828961913188     -0.00012599924512
  C   0.34752779796986      1.21595700273427     -0.00016269872272
  N   1.03646728818675      2.37176671529313     -0.00029460172118
  C   2.36335615407175      2.26487428588544     -0.00032226492199
  N   3.12467226547369      1.16525237118555     -0.00023025215500
  C   2.46859507735332     -0.00000436848346     -0.00010807970400
  N   3.12467152947694     -1.16526150078669     -0.00004513846587
  C   2.36335468626632     -2.26488295227906      0.00003738377712
  N   1.03646577222381     -2.37177451224421      0.00010148772881
  C   0.34752709140256     -1.21596426790444      0.00008001268472
  N   -0.97299489149673     -1.20829620736200      0.00022054676135
  N   1.06245257746562     -0.00000392946818     -0.00006437977540
  H   2.91189485473763     -3.21439608241267      0.00005784946237
  H   2.91189688182568      3.21438708940887     -0.00040053902464
  C   -3.71409893066989      1.23521558137994      0.00051118312038
  H   -3.03533048052655      2.09296721469864      0.00031171411427
  H   -4.36154763459438      1.27223502367957     -0.89296415607343
  H   -4.36082608630027      1.27210496515588      0.89452507316916
  H   -4.36340930005787     -1.27110380156471     -0.89136384714639
  H   -4.35895934100342     -1.27325004092673      0.89611869001118
  H   -3.03533371704977     -2.09297263155976     -0.00179268080982
