64
Coordinates from ORCA-job ./opt_b3lyp_cdz
  N   -4.70946739518393     -1.03517553849850      0.34979245870051
  C   -5.51095194931177      0.07777851857041      0.19637658410678
  C   -6.92185896028125      0.01366230716713      0.22734871326550
  C   -7.73391943119057      1.14897311755571      0.13676858916955
  C   -7.19201733783885      2.42736358913097      0.00992633002918
  C   -5.80021903266002      2.51783446376750     -0.04688766631534
  N   -5.04975893402651      3.69184110648159     -0.17538670898532
  C   -3.81679261072451      3.31663727970559     -0.16568335689329
  N   -3.63518903091471      1.91906847914839     -0.04596983558685
  C   -4.96083392107850      1.37943217759574      0.02303241078107
  C   -2.38613211474541      1.33807941288848     -0.15809637017417
  N   -2.35342814591465      0.04307940631238     -0.55069387799910
  C   -1.22110039423072     -0.62980660340281     -0.73030508775030
  N   -1.20811262743771     -1.94186077701224     -1.02878817805071
  C   -0.00004359776456     -2.50472834218024     -1.15990782957613
  N   1.20802308779953     -1.94182418088958     -1.02889898649891
  C   1.22100502627999     -0.62977325130974     -0.73040002660337
  N   2.35333026031730      0.04313801876715     -0.55087057515987
  C   2.38603464381370      1.33815289546973     -0.15831708916598
  N   3.63508370380129      1.91917532911794     -0.04635074107086
  C   3.81663418283139      3.31674939416980     -0.16608860701479
  N   5.04958945191208      3.69198401011790     -0.17599630287234
  C   5.80009806441534      2.51799710250178     -0.04759557941944
  C   4.96075283971622      1.37957805093150      0.02251295566155
  C   5.51093193071384      0.07795719451447      0.19586556767022
  N   4.70951763514253     -1.03501416594445      0.34956538205088
  C   5.08125490066918     -2.37682388747777      0.37278022240934
  N   4.22600079852973     -3.30578700371579     -0.19402018134649
  C   4.77658279609014     -4.54449985948939      0.02450364134583
  N   5.91559087891036     -4.46581159236623      0.67562092152198
  C   6.11951749583578     -3.12008831099653      0.90975759263619
  H   6.98194992802701     -2.76818830982011      1.46879021949347
  H   4.29490869484220     -5.45982019969735     -0.31402100761693
  H   3.34694577737788     -3.08674036989637     -0.65985158205050
  H   3.75004431235222     -0.86984075601094      0.03562863483746
  C   6.92184923214175      0.01388846708980      0.22659404553664
  C   7.73386814499543      1.14920952287039      0.13579880373319
  C   7.19190681888800      2.42757601648490      0.00898583894927
  H   7.80292874826661      3.32845402513289     -0.04359296253821
  H   8.81778286172348      1.01872508268573      0.17075790635537
  H   7.38557965422318     -0.96714989177143      0.31298654477344
  H   2.96029655990090      3.96947915278932     -0.30530516999911
  C   1.17529409998431      2.04566492127400      0.09769366068620
  C   -0.00004886709292      1.32368956147124     -0.19486399587133
  C   -1.17539432467926      2.04562771014424      0.09778983850142
  C   -0.69492912188253      3.29459438037325      0.64493949296711
  C   0.69482250313903      3.29460074285632      0.64491849976522
  H   1.30625895578863      4.10285854729928      1.03828255607496
  H   -1.30636927830605      4.10284283295404      1.03831666608956
  N   -0.00005129101422      0.02925893187577     -0.59575584107737
  H   -0.00003495954561     -3.57313102571341     -1.39800442109080
  H   -2.96048630511390      3.96938937255475     -0.30499974843087
  H   -7.80307410914910      3.32822686772955     -0.04250226697064
  H   -8.81782435745648      1.01845423452497      0.17190494953831
  H   -7.38554958410161     -0.96739979786677      0.31376273343557
  C   -5.08116206241192     -2.37698261062794      0.37314437109629
  N   -4.22612703361084     -3.30591908675167     -0.19402600531450
  C   -4.77657336077438     -4.54465023723736      0.02475237539914
  N   -5.91531014829315     -4.46598772831591      0.67635056704095
  C   -6.11918717096810     -3.12026900122910      0.91054944001483
  H   -6.98141230390705     -2.76837580392065      1.46990834326410
  H   -4.29500628443844     -5.45995708061192     -0.31396007255772
  H   -3.34727439486332     -3.08684641228303     -0.66022783538818
  H   -3.75008038300766     -0.86995479546296      0.03562529317946
