64
Coordinates from ORCA-job ./opt_b3lyp_cdz
  N   4.89472161931308      0.84144299565585      0.24926573547027
  C   5.58452591773878     -0.25810649532501     -0.21488625227338
  C   6.97610415830854     -0.23139613225400     -0.44747517964124
  C   7.71862665164305     -1.35640423814562     -0.83205221259239
  C   7.10879230109209     -2.58970694647474     -1.01651158936772
  C   5.71922117873711     -2.64227297450282     -0.83210838128408
  C   4.78852255303420     -3.72940879071059     -0.91405943332399
  N   3.56579012729869     -3.35724044333597     -0.65413559793827
  N   3.60686713739294     -2.00170969220341     -0.38990569415874
  C   2.36574465875157     -1.39833322998648     -0.23666864005213
  N   2.34614933631509     -0.04760051887294     -0.22788157043836
  C   1.21661434358641      0.65323285809030     -0.11456477065392
  N   -0.00019390231225     -0.02158367251381     -0.00149992264231
  C   -0.00042760209328     -1.37209619932589     -0.00099522246198
  C   -1.16914183182607     -2.15328992042426      0.12071718700509
  C   -0.69081573271656     -3.51699477183877      0.07323499758889
  C   0.68925959405095     -3.51729099179215     -0.07311027321932
  C   1.16802808967795     -2.15378541835403     -0.12193989529360
  H   1.32624335799483     -4.39154496598538     -0.14559535389662
  H   -1.32811954550798     -4.39094674469187      0.14652610255947
  C   -2.36656164018873     -1.39732786642591      0.23496753163469
  N   -3.60791625363447     -2.00010971337897      0.38870995507187
  N   -3.56733057300011     -3.35549165271237      0.65383431832286
  C   -4.79007464244094     -3.72687319186228      0.91483354721623
  C   -5.72028360924548     -2.63932037949168      0.83281077994974
  C   -4.94467735161870     -1.50957912718061      0.47198524179150
  C   -5.58485707945323     -0.25569608870405      0.21366781831699
  N   -4.89477946634287      0.84305841591479     -0.25190810747690
  C   -5.37747860851883      2.06143831031914     -0.71043109551150
  C   -4.70167707702420      3.26000840663064     -0.61707310022249
  C   -5.34452285061567      4.32296814903191     -1.32193849437394
  C   -6.50162855579176      3.94274202040169     -1.94430990847943
  S   -6.82937740625536      2.24352692398518     -1.70857422075612
  H   -7.21274336147307      4.55235736780347     -2.49780499861105
  H   -4.96410933683450      5.34521929862936     -1.34391137345167
  H   -3.75973371134294      3.35308153840899     -0.07533825168377
  H   -3.87655417451089      0.78365061026176     -0.11943496221501
  C   -6.97628997119060     -0.22815490228704      0.44710098274335
  C   -7.71911093619506     -1.35253135605468      0.83294652903581
  C   -7.10973479119605     -2.58597900023083      1.01794237581223
  H   -7.67366682494687     -3.47853612662348      1.29195105313423
  H   -8.79552373850976     -1.24148320856803      0.98160755356592
  H   -7.49597884422039      0.72004067783916      0.31582684700449
  H   -4.99668499647984     -4.76778796459879      1.16183382864242
  N   -2.34650771907386     -0.04659452302065      0.22505075602627
  C   -1.21672631693532      0.65376746796178      0.11114847813947
  N   -1.20313958302120      1.99441718858365      0.10576719487676
  C   0.00029451350562      2.57050027599793     -0.00245051162827
  N   1.20351453477038      1.99388879687072     -0.11019741108762
  H   0.00050895760235      3.66532393518243     -0.00288168435761
  C   4.94393381754929     -1.51189719075121     -0.47253944062800
  H   4.99477778723316     -4.77059229887004     -1.16022155517581
  H   7.67246087887642     -3.48271690247572     -1.28958491963553
  H   8.79516584875102     -1.24590593356361     -0.98020845703406
  H   7.49623536987381      0.71659827053053     -0.31645487347129
  C   5.37820414178908      2.05963529743522      0.70755281695077
  C   4.70474611330733      3.25924518342124      0.61129864430730
  C   5.34766039791467      4.32182849168595      1.31673454856202
  C   6.50252971987714      3.94019336816397      1.94237585538413
  S   6.82793190883902      2.24019865234011      1.70916226297640
  H   7.21329103086214      4.54916996593189      2.49703324837553
  H   4.96894421855550      5.34474776320041      1.33673678033903
  H   3.76436613375240      3.35361126886465      0.06708794495803
  H   3.87653149912246      0.78253633099514      0.11643203987668
