68
Coordinates from ORCA-job ./opt_b3lyp_cdz
  N   4.67444613878046      0.91551673916098     -0.14732593509555
  C   5.47650904319259     -0.20738744164269      0.02395803824710
  C   6.88034486764941     -0.12685076872193      0.13238135887517
  C   7.69466726144138     -1.25161179872237      0.31974492459915
  C   7.15569238126306     -2.53363018196838      0.39316748626778
  C   5.77032668630500     -2.64785051057191      0.25410911841711
  N   5.01842229384999     -3.82357792526327      0.31595050592025
  C   3.78874696786026     -3.45003350888654      0.18896809503698
  N   3.61939518585854     -2.05928818226053      0.02639244779251
  C   4.93653340681887     -1.51876136450763      0.05604282448978
  C   2.37851594696565     -1.50830756103649     -0.27085041669961
  N   2.36484507856602     -0.39615810645710     -1.03249371077121
  C   1.22437818304708      0.18995128490983     -1.41452175269947
  N   -0.00017798936132     -0.39535275316414     -1.07732258227602
  C   -0.00049292123841     -1.50794068920768     -0.31231076071176
  C   1.17253908026867     -2.11367531946365      0.17725705553763
  C   0.69397477089888     -3.15291728758317      1.06213652172566
  C   -0.69581990377156     -3.15237823106864      1.06234797448185
  C   -1.17384523229422     -2.11275177565054      0.17763113260495
  C   -2.37948816053781     -1.50643725989458     -0.27009214047513
  N   -3.62070136298905     -2.05644997336557      0.02754442669010
  C   -3.79107685045182     -3.44706401973325      0.19018483469911
  N   -5.02100045846901     -3.81965703043827      0.31755188974939
  C   -5.77201652442672     -2.64335092478958      0.25591984707907
  C   -4.93741523024339     -1.51491152212885      0.05755951020600
  C   -5.47638742108240     -0.20312075230748      0.02559271895860
  N   -4.67349472154648      0.91914390835084     -0.14598656211257
  C   -4.89837672103767      2.23443885376274      0.23656116427676
  C   -4.13656457190450      3.25069613670266     -0.37876646216609
  C   -4.31101050349620      4.57023854779130      0.02840420416178
  N   -5.17016903625268      4.96984436830386      0.98028197285750
  C   -5.88045886723089      3.99399290011522      1.56396823534671
  C   -5.79329053997108      2.63772441468957      1.24754623076510
  H   -6.39166698811460      1.91413322935963      1.80028036023841
  H   -6.57262338055956      4.31178296903586      2.35233643086634
  H   -3.72255112684687      5.36199843806614     -0.44922636183057
  H   -3.41886019507878      3.00019475769696     -1.16457182493305
  H   -3.82250667809555      0.74051221529537     -0.68317681922608
  C   -6.88012626256681     -0.12149829767610      0.13446155293549
  C   -7.69525633051375     -1.24562600359125      0.32211582777313
  C   -7.15725031685760     -2.52805848351976      0.39540711904767
  H   -7.76721079773062     -3.41710139352427      0.55619905318201
  H   -8.77478405319587     -1.10138213292760      0.40409947567465
  H   -7.34434380488721      0.86032696357577      0.04885132857134
  H   -2.93339994579625     -4.11219508480668      0.13794863132069
  N   -2.36518762052125     -0.39429361019934     -1.03173324800432
  C   -1.22438105431085      0.19091788306595     -1.41412753827221
  N   -1.20804359471939      1.33205119254213     -2.11337748066415
  C   0.00048242536736      1.82172964615775     -2.41884098145658
  N   1.20871877876630      1.33109406865154     -2.11377216508335
  H   0.00075930410333      2.75568862973832     -2.98970299644444
  H   -1.31240211095948     -3.81344267806195      1.66683826426498
  H   1.31022642557815     -3.81446125322348      1.66643843535081
  H   2.93054202644366     -4.11450130332126      0.13697457677069
  H   7.76501651483342     -3.42314868005039      0.55374233240999
  H   8.77433177332655     -1.10820501982164      0.40139592449714
  H   7.34528715705463      0.85462149052532      0.04665352151937
  C   4.90039449891308      2.23057722974454      0.23539207380271
  C   4.13910135366822      3.24749209024336     -0.37949372609982
  C   4.31463700004621      4.56683612853468      0.02784917435660
  N   5.17440933157466      4.96565727290182      0.97950262186879
  C   5.88419778532287      3.98919141905184      1.56277099689882
  C   5.79594764403681      2.63304178755840      1.24613879992298
  H   6.39399811210350      1.90892540058007      1.79853776675843
  H   6.57686256426935      4.30634336759667      2.35095688392475
  H   3.72658144571007      5.35910278043928     -0.44943853872676
  H   3.42094470790054      2.99764801297934     -1.16509531230481
  H   3.82311264879117      0.73757417223827     -0.68419620971501
