21
Coordinates from ORCA-job ./opt_b3lyp_cdz
  C   3.95166233597873     -0.99996524404914     -0.16935836139174
  C   3.17895604624008      0.29514283606969     -0.12221405974786
  O   3.69510467418901      1.38939564113117     -0.11292351466794
  C   1.64496079057737      0.18654404892568     -0.08501651653886
  N   1.14473324633083     -1.05423528858471     -0.10052026571515
  C   -0.18817726237550     -1.17135914630830     -0.06939825932226
  N   -0.78118145862949     -2.36869192043663     -0.08206505067469
  C   -2.11761052248140     -2.36275000253744     -0.04768848249830
  N   -2.94789332256842     -1.32102317802562     -0.00206130869700
  C   -2.37792352455918     -0.10873635676987      0.01135651253138
  N   -3.11443695825013      1.00558577155974      0.05613327422891
  C   -2.43949156030717      2.15836487359792      0.06543459788713
  N   -1.12061895708983      2.35663595406212      0.03608149059976
  C   -0.35643663241211      1.25904703723450     -0.00905650154646
  N   0.97553628618138      1.34072495973467     -0.04150897332531
  N   -0.97482804587887     -0.00786562947890     -0.02244200325872
  H   -3.05365119787149      3.06525890687050      0.10228736165392
  H   -2.59465970241565     -3.34934205547944     -0.05841403825414
  H   5.02593903313384     -0.77744760018964     -0.18626426711716
  H   3.66385135582676     -1.58474729208739     -1.05775355129934
  H   3.69954642269269     -1.62903801460811      0.69921440399350
