80
Coordinates from ORCA-job ./opt_b3lyp_cdz
  N   -4.72050010853020     -2.01355097241885      0.98824478756431
  C   -5.48307092043114     -0.92114201942345      0.61236580525128
  C   -6.88486599339244     -0.96590145101663      0.72725025434181
  C   -7.75045757854220      0.12862562686823      0.47618423018017
  N   -9.13209656991826     -0.01142019205219      0.67738885278920
  C   -9.81844620113054     -1.26036845141996      0.33430699380184
  H   -10.65724276120066     -1.39294420917606      1.04368228341645
  H   -9.14729530088623     -2.11512047443268      0.47644259036503
  C   -10.36249009225571     -1.23720695645803     -1.10528834570016
  H   -10.91092590674913     -2.17373423910712     -1.30907516575906
  H   -9.50845716131003     -1.20324075343652     -1.80582417270060
  C   -11.27146725869259     -0.01952142704580     -1.33121481886261
  H   -12.19525308536643     -0.14233933399146     -0.73324439228352
  H   -11.58777110364655      0.03679455965182     -2.38637419766078
  C   -10.56877560831165      1.27939308118575     -0.90586628426681
  H   -11.26589514443864      2.13387529100012     -0.95855648690567
  H   -9.73465430168503      1.49831530428519     -1.59580574290732
  C   -10.02203567938744      1.13897803591716      0.52423264523381
  H   -9.50904908379154      2.04975269251818      0.85908889070276
  H   -10.87089794549522      0.98711806895722      1.21796518761612
  C   -7.17486725584323      1.35473009633919      0.08452971899989
  C   -5.78763311045908      1.41800868143727     -0.04070103590426
  N   -5.04892393632041      2.55316135544776     -0.39726771215936
  C   -3.81138142496282      2.18035685330720     -0.36299298664934
  N   -3.62293119571080      0.82889928857710     -0.01523095365924
  C   -2.38119248569486      0.21981864315180     -0.06940888542617
  C   -1.17311805399450      0.95691868602781      0.09614569570409
  C   0.00073250469887      0.20669855372933     -0.10799085786600
  C   1.17433507334739      0.95719873182375      0.09654016103379
  C   0.69613626202201      2.26340599470170      0.48767585159145
  C   -0.69536327962663      2.26324826364075      0.48741316745286
  H   -1.31034397757635      3.11226227736563      0.77635755741128
  H   1.31081561875226      3.11256110732457      0.77684616046404
  H   3.83646422467672     -2.09112751911291      0.48469379053878
  N   4.72174910069546     -2.01281439542269      0.98914371619596
  C   5.48435517314562     -0.92019479697818      0.61393741799885
  C   6.88610475753958     -0.96477109138013      0.72942820018048
  C   7.75163471144395      0.12994710829188      0.47897006716215
  N   9.13320834243906     -0.00997066333610      0.68067504924156
  C   10.02303737247001      1.14065048714197      0.52862412780153
  H   10.87148241536203      0.98863517720160      1.22283842207031
  H   9.50965728380447      2.05117523464142      0.86355728539971
  C   10.57069765505697      1.28183065128477     -0.90104563668793
  H   9.73700143658052      1.50093734514751     -1.59144121143895
  H   11.26771044428687      2.13645300765240     -0.95286706635072
  C   11.27388579667641     -0.01676830830756     -1.32652847454714
  H   11.59092373435874      0.04009905287590     -2.38143767248135
  H   12.19726741064910     -0.13973402695232     -0.72796393370032
  C   10.36492632656491     -1.23468900513342     -1.10182235026043
  H   9.51136366307874     -1.20048716085797     -1.80292050611305
  H   10.91362580101409     -2.17104074757001     -1.30570649843096
  C   9.81990920907806     -1.25866460859844      0.33739483223942
  H   10.65823977100789     -1.39157855532048      1.04726165103810
  H   9.14870737128964     -2.11353562477159      0.47857706699891
  C   7.17603735800552      1.35605888087084      0.08734495256344
  C   5.78884493077779      1.41916047150992     -0.03844993301433
  N   5.05009862693669      2.55425065991789     -0.39514490795788
  C   3.81260059669554      2.18123276223810     -0.36145942239628
  N   3.62423196520941      0.82970103638654     -0.01393799048809
  C   4.93773553012711      0.31492636801978      0.18387276975109
  C   2.38263676503901      0.22038176359050     -0.06862321135901
  N   2.36684367262940     -1.10745988912919     -0.30960765365117
  C   1.22628132237802     -1.79330080174689     -0.42551741781285
  N   0.00093375408040     -1.12256181033477     -0.35803752180550
  C   -1.22423249041409     -1.79358408217528     -0.42595140787356
  N   -2.36499666098723     -1.10801211930758     -0.31042841763314
  N   -1.20836154265146     -3.12189510934139     -0.60420450107512
  C   0.00128988180207     -3.68973930248358     -0.68590732306289
  N   1.21078079841365     -3.12161645999325     -0.60377330148572
  H   0.00144115597553     -4.77514589733553     -0.83328508145342
  H   2.96237256824742      2.79964701199337     -0.63486898656815
  H   7.75547984693251      2.24954505648473     -0.13065911920954
  H   7.30745741545218     -1.90387099485962      1.09091856962026
  H   5.24137431591966     -2.88454886358979      1.02461622776715
  C   -4.93643910959595      0.31395083762076      0.18220245588573
  H   -2.96114360975746      2.79886755887315     -0.63615675358280
  H   -7.75433378593834      2.24809963065278     -0.13388148545398
  H   -7.30621355276284     -1.90499044282473      1.08876845411619
  H   -3.83497495499184     -2.09190324538188      0.48422455591450
  H   -5.24003449431165     -2.88533946342655      1.02375389609744
