64
Coordinates from ORCA-job ./opt_b3lyp_cdz
  N   -4.87188381293596     -0.80801381450469     -0.07954998027194
  C   -5.59167736979408      0.36383151719492     -0.08610932861056
  C   -7.00232195775874      0.37875325964232     -0.16170882963712
  C   -7.77151067104667      1.54919364357021     -0.11533636691747
  C   -7.17373373354978      2.79519442976892      0.01433468718961
  C   -5.77205871115262      2.82117213722582      0.05620639800032
  C   -4.84796036978832      3.90677861301354      0.20199645009968
  N   -3.60728723542212      3.50562510297653      0.20635279445694
  N   -3.62872493771867      2.13199406719720      0.05832031710224
  C   -4.97167782018046      1.65393504147327     -0.02250032656222
  C   -2.37939514068314      1.54558022207067     -0.09379505556073
  N   -2.35788105151695      0.25169227775348     -0.48259438424193
  C   -1.22219872224656     -0.41845890586942     -0.67951176854610
  N   -1.20654180401268     -1.70720052372698     -1.05269893010576
  C   0.00151670142922     -2.26017961102523     -1.21279186320518
  N   1.20901438908604     -1.70630739147851     -1.05156383948387
  C   1.22336367829532     -0.41755540563513     -0.67836177816372
  N   2.35836224644674      0.25343757426224     -0.48038035015718
  C   2.37854841554130      1.54734135143952     -0.09156507157621
  N   3.62731614069506      2.13464356462668      0.06171557893875
  N   3.60482710008161      3.50826869571383      0.20966030657445
  C   4.84524107943288      3.91024272857388      0.20642168379037
  C   5.77019119040989      2.82523989051819      0.06152013746629
  C   4.97065009250288      1.65747887269583     -0.01784595793029
  C   5.59152474908455      0.36777500349945     -0.08081959363283
  N   4.87243716844004     -0.80451092302814     -0.07483275636558
  C   5.30280419020428     -2.11752253312037      0.13143865199315
  C   6.44477528265393     -2.57119771841627      0.76322504912706
  S   6.49217238852105     -4.31215716328473      0.83484830501749
  C   4.96346229565887     -4.43251196747152      0.01929933148078
  C   4.45544075942704     -3.20430377691430     -0.29571335969514
  H   3.50305185084365     -3.04239187514616     -0.80394571386625
  H   4.53266944431660     -5.40872529777093     -0.19433669544187
  H   7.23561446566264     -1.99938599493875      1.23756149811899
  H   3.87665387129677     -0.68330529828936     -0.28491806170605
  C   7.00222693698482      0.38359730616461     -0.15514316412444
  C   7.77061710541771      1.55454011583647     -0.10813876246485
  C   7.17192002952913      2.80016567818491      0.02092047668082
  H   7.75163923344284      3.72152816289530      0.08966004734715
  H   8.85799542854838      1.46919656409974     -0.16919350541921
  H   7.51157459414260     -0.57043279523401     -0.27526047909344
  H   5.06870657295655      4.97216060438007      0.30458446337508
  C   1.17439103441416      2.27068499174178      0.12369052454412
  C   -0.00040634166757      1.52410716465442     -0.10793576202348
  C   -1.17597521357029      2.26981143354289      0.12258884811126
  C   -0.69532738310272      3.57152775615062      0.52907319672720
  C   0.69239454066950      3.57204377057504      0.52972532895654
  H   1.33284479162158      4.40916006887426      0.78304792806057
  H   -1.33663861053471      4.40816827989440      0.78179260784298
  N   0.00025591478948      0.23048542139942     -0.49528988110839
  H   0.00204855804433     -3.31218351148892     -1.51612554397184
  H   -5.07221748146188      4.96854316360679      0.30001014587297
  H   -7.75410915713557      3.71617892484169      0.08259984108136
  H   -8.85877785197241      1.46315207519421     -0.17738282008188
  H   -7.51094239168901     -0.57559895407777     -0.28234797276698
  C   -5.30162399215987     -2.12128578886250      0.12636883918434
  C   -6.44388168021404     -2.57566064213898      0.75713430884165
  S   -6.49026624311965     -4.31664944027526      0.82873482696590
  C   -4.96075132573320     -4.43606639545894      0.01455780793463
  C   -4.45321039537284     -3.20754800226594     -0.30001875124113
  H   -3.50047376582461     -3.04505038074697     -0.80741090194047
  H   -4.52916311346672     -5.41201472379842     -0.19868387754496
  H   -7.23550191396455     -2.00433728769743      1.23075488264801
  H   -3.87598382989723     -0.68618979798682     -0.28872175707093
