86
Coordinates from ORCA-job ./opt_b3lyp_cdz
  C   -5.33725177116106     -3.27115042887826      0.84758682084800
  N   -4.74591402230412     -1.96139192801905      0.68430520985713
  C   -5.50873194880489     -0.84094778025622      0.44475438437012
  C   -6.91110826595290     -0.86705942404096      0.58263198174526
  C   -7.75771871747264      0.26136004418282      0.42355502090210
  N   -9.13784737487802      0.13120950387019      0.64058731822582
  C   -9.85493741850544     -1.07969174231535      0.23088870540576
  H   -10.68028271940050     -1.24554660591979      0.94910779307599
  H   -9.19684462962572     -1.95344745064202      0.29832472484808
  C   -10.43082466314700     -0.94913476251682     -1.19053543228454
  H   -9.59211614228072     -0.88236016003424     -1.90704748724290
  H   -11.00109516117707     -1.86011327430235     -1.44415659239699
  C   -11.32177571568720      0.29639526614611     -1.31187244139318
  H   -12.23354075798516      0.14895772154363     -0.70106138716753
  H   -11.66143264249769      0.42973621871828     -2.35276915881989
  C   -10.58561324637633      1.55115279434124     -0.81654911074546
  H   -11.26780684292407      2.41895284957880     -0.79443122096302
  H   -9.76350827258452      1.80250927946287     -1.50986529816981
  C   -10.00930239024509      1.30418000506841      0.58725762901039
  H   -9.47178638926868      2.18110663400774      0.97045304125045
  H   -10.84527078104012      1.11999180943113      1.28890170538349
  C   -7.16907281419254      1.49992701801406      0.10518866752750
  C   -5.78174743865768      1.54741973971724     -0.03741358636496
  N   -5.03451086639600      2.69537536910077     -0.32995115403321
  C   -3.80198498098805      2.30784458719844     -0.33689592046264
  N   -3.62542850863470      0.93376651334003     -0.07964746108498
  C   -4.94508218858740      0.42068892627862      0.09849611801357
  C   -2.38298088143959      0.33056182779884     -0.16255064882578
  N   -2.36260511930542     -0.98581118899457     -0.46237610019485
  C   -1.22294813028231     -1.66636395344716     -0.60652541275140
  N   -1.20781560971612     -2.98722528278840     -0.83565361033979
  C   0.00181457637410     -3.55151460037497     -0.93951687880059
  N   1.21120583164110     -2.98678875169941     -0.83525532226585
  C   1.22578538024422     -1.66592144023493     -0.60612571302970
  N   2.36514511758278     -0.98495011096688     -0.46161555656829
  C   2.38492772044100      0.33143356773966     -0.16181548476992
  N   3.62714112178613      0.93505036736853     -0.07847410387966
  C   4.94686135185157      0.42235849962096      0.10007247307063
  C   5.78325962816377      1.54932746208136     -0.03546887711374
  N   5.03580241575180      2.69708064209767     -0.32821875310973
  C   3.80339162398466      2.30918490816057     -0.33561991503163
  H   2.94955910088297      2.93375819934887     -0.58127235810739
  C   7.17054669959107      1.50219458343249      0.10763168330124
  C   7.75939710870690      0.26375757417616      0.42612286719971
  C   6.91303407243377     -0.86490140704745      0.58481719220084
  C   5.51072560138132     -0.83913360847164      0.44639197885673
  N   4.74814346479064     -1.95983501272379      0.68551684553259
  H   3.83807025712357     -1.93549671710171      0.22379039402910
  C   5.33965288240570     -3.26951239918354      0.84887939564728
  H   5.92739457314690     -3.33438493783133      1.78145693619338
  H   6.00618381088196     -3.56061033506303      0.01080346132157
  H   4.52867334817928     -4.00896192251853      0.91278416281074
  H   7.36067621620629     -1.80969100348849      0.88090246094481
  N   9.13947083998637      0.13390330343918      0.64358949956367
  C   10.01065707282833      1.30711147356259      0.59125336926391
  H   9.47265922930607      2.18375529954734      0.97441852489989
  H   10.84622610255097      1.12288898303685      1.29337103033919
  C   10.58783443724623      1.55476288728353     -0.81207877595186
  H   9.76613119335189      1.80619990789237     -1.50584319649011
  H   11.26981646106086      2.42270828827157     -0.78917461514460
  C   11.32460689972312      0.30036066887578     -1.30739452197085
  H   11.66494903015672      0.43418276041865     -2.34800550190272
  H   12.23598370411457      0.15287861263939     -0.69601491567295
  C   10.43383338352244     -0.94540059253006     -1.18715956916227
  H   9.59558256706707     -0.87849033895379     -1.90419556704437
  H   11.00445296305071     -1.85615794972199     -1.44078720798100
  C   9.85702439294889     -1.07668690950903      0.23382968111580
  H   10.68191646400422     -1.24277943553757      0.95251808104541
  H   9.19897789148778     -1.95055614334390      0.30038901558790
  H   7.73615579745030      2.41820199611727     -0.04228647622545
  C   1.17503963053509      1.05913280497797      0.03702783338045
  C   0.00098663289754      0.31951820331819     -0.20409514518534
  C   -1.17341479020756      1.05869926135542      0.03666812083013
  C   -0.69515318439992      2.34362002392569      0.49283219101342
  C   0.69616885802128      2.34387546690181      0.49304870579370
  H   1.30995611081211      3.17766580481654      0.82523334958750
  H   -1.30934645622942      3.17718595932481      0.82483060003228
  N   0.00128122014343     -0.99807798522514     -0.51311067407850
  H   0.00204073552431     -4.63046156590329     -1.12840365823626
  H   -2.94824877588634      2.93265683875599     -0.58227822027626
  H   -7.73485571860557      2.41578687222107     -0.04496441090895
  H   -7.35858577258464     -1.81193947684336      0.87863329162902
  H   -3.83566350982006     -1.93687092957507      0.22293505061101
  H   -5.92544344407475     -3.33601270737784      1.77988305897982
  H   -4.52621695862164     -4.01050009934800      0.91201564152736
  H   -6.00333407836266     -3.56252062340754      0.00924405237237
