74
Coordinates from ORCA-job ./opt_b3lyp_cdz
  N   1.29050796772179      5.29880344170082     -1.69758334565807
  C   1.99891090149596      4.20518760622009     -1.17905666200416
  C   2.98428985253403      3.53601275438466     -1.92741478002075
  C   3.70783735797752      2.46322530401368     -1.40008772466797
  C   3.47712012810840      2.01930406244276     -0.08782067718626
  N   4.10609750974301      0.89742750578122      0.49521591142300
  C   5.02949801154395      0.04833209590385     -0.11281866240079
  C   6.25491534396970      0.52161741237048     -0.62061699918743
  C   7.20501032195169     -0.32356067867399     -1.21364577146058
  C   6.99079641437655     -1.69708752855957     -1.32385743036935
  C   5.78378252003640     -2.19865879354796     -0.82559926902480
  N   5.30560757000701     -3.50897468952623     -0.90966535887295
  C   4.10456341606974     -3.46398434795274     -0.42656986562172
  N   3.71518819376635     -2.19298052772926      0.02662967109661
  C   4.82526323480641     -1.34784561474466     -0.22180122563817
  C   2.47045029639630     -1.94814955129718      0.60413672317727
  N   2.43093342283265     -1.09962442713320      1.64924400671254
  C   1.27549549776132     -0.75165652098761      2.22735828413833
  N   0.07084508187138     -1.28910325320242      1.75177734617674
  C   0.10945082809507     -2.17457687571249      0.73472496537949
  C   -1.04122082830836     -2.63949764101174      0.06600157962118
  C   -0.52599819846384     -3.39439016196785     -1.05636926450848
  C   0.86228148742220     -3.35291522541028     -1.03768675167423
  C   1.30109502749179     -2.56855606675041      0.09605787302687
  H   1.50856635960481     -3.81356891804526     -1.78163142979518
  H   -1.12204786727413     -3.89217581956096     -1.81790919753345
  C   -2.25667830715696     -2.09491335711361      0.55100205287816
  N   -3.47265916422464     -2.40069678714895     -0.06109691128112
  C   -4.62558344130274     -1.61665561307043     -0.32626499307367
  C   -5.49191387594095     -2.49653011498551     -1.02155191332580
  N   -4.92361443416641     -3.76673501046617     -1.14160262034149
  C   -3.75466892291596     -3.66881813865583     -0.59233496522124
  H   -3.04015582579870     -4.48075230055403     -0.47243129863563
  C   -6.70905179392533     -2.05649791905163     -1.55276280625650
  C   -7.03277579772382     -0.71246573333038     -1.37651750983120
  C   -6.18143230217026      0.16110246115330     -0.68344434007648
  C   -4.94875110882169     -0.25040758461256     -0.14024453125903
  N   -4.13599447353953      0.61815522309917      0.58428537535262
  H   -3.55869061328653      0.14795105315832      1.28089241213083
  C   -3.67709459051864      1.88966639048717      0.20225310658824
  C   -2.93777672437625      2.63083777171990      1.14634731238274
  C   -2.36985706093930      3.85756253658397      0.81342481472518
  C   -2.53363193202255      4.40604686129362     -0.46885223690030
  N   -1.87060171383110      5.60883027883073     -0.82973224422317
  H   -2.33511312375898      6.09087491433746     -1.59852537065227
  H   -1.79551573280041      6.25904979358963     -0.04756159249280
  C   -3.29725917849109      3.68544892318947     -1.39834041417152
  C   -3.85880417575632      2.44720756250362     -1.07545185742596
  H   -4.42075541232753      1.90331038624623     -1.83583905989631
  H   -3.44249186091350      4.08670800756632     -2.40590145351904
  H   -1.78500821443036      4.39834373420360      1.56322468922424
  H   -2.79151788842021      2.22023989701444      2.14874889087763
  H   -6.48246394507558      1.19859146851027     -0.52947583617055
  H   -7.97453094454068     -0.32470340059122     -1.77159496595073
  H   -7.35261016221070     -2.75003169354611     -2.09473489583398
  N   -2.29254396664510     -1.25861455619506      1.60564178562191
  C   -1.17293031821866     -0.83560013820286      2.20699494502503
  N   -1.19594589470719      0.02862566461225      3.22802624631789
  C   -0.00325480560675      0.42416205377805      3.69311607585515
  N   1.21942534525226      0.11329201726945      3.24760346487327
  H   -0.03419010018601      1.11405787245563      4.54275243589072
  H   3.43728232471062     -4.31483544160227     -0.30195992029982
  H   7.70979378022818     -2.36726148293525     -1.79607716019797
  H   8.13485811322461      0.11145506762207     -1.58721831659223
  H   6.46429116812742      1.58816884684040     -0.52336153527625
  H   3.55022373755396      0.43378306871424      1.21124772393097
  C   2.51630755494370      2.70757734743386      0.67845812074210
  C   1.79032775772463      3.76910282059065      0.14404307283588
  H   1.04279072586912      4.27300797688898      0.76228876216141
  H   2.32980210943211      2.38970778859108      1.70839089809358
  H   4.43632438848318      1.95309642787689     -2.03206245827212
  H   3.17860512429811      3.84861788031297     -2.95813973235951
  H   1.29797565039875      5.32595038537812     -2.71464085584533
  H   0.32574241756954      5.37043746150587     -1.36076135645452
