86
Coordinates from ORCA-job ./opt_b3lyp_cdz
  C   -9.71834607131861     -0.34467600436203     -0.32427511867511
  N   -9.12882742997919      0.98016746109005     -0.32504817492014
  C   -7.75432230924471      1.13821702509427     -0.26789404001051
  C   -7.17114798144704      2.42458228596346     -0.29311297056457
  C   -5.78509013375701      2.50964397021020     -0.19726605023047
  N   -5.03364584235942      3.69129771483521     -0.23193398512897
  C   -3.79976826279068      3.31420162349075     -0.16946738640721
  N   -3.62296326772948      1.91796014721027     -0.07916118247022
  C   -4.94302089024567      1.38041352573721     -0.08430907471297
  C   -5.50141912354849      0.07605900962158     -0.11827915756604
  N   -4.69851270490092     -1.05394815421624     -0.06787551520867
  C   -5.01976802491370     -2.38565785750686     -0.35512405266831
  C   -5.93055228541974     -2.76564089019293     -1.36197307883268
  C   -6.15512453720512     -4.11705580541453     -1.63395544380342
  C   -5.47661045069708     -5.11638995843833     -0.92950118301499
  C   -4.55476664740387     -4.74244422144750      0.05450192052075
  C   -4.32996346618470     -3.39727345130061      0.34608582971467
  H   -3.60756828440329     -3.11170608671442      1.11584431301726
  H   -4.00688745277405     -5.50752937672609      0.61085870198473
  H   -5.65761172822763     -6.17073045501437     -1.14929064579825
  H   -6.86393762925616     -4.38873505400331     -2.42081425157335
  H   -6.44070730745717     -2.00274349907393     -1.95058748382442
  H   -3.81864406465183     -0.90175289472501      0.42999346776012
  C   -6.90539494491831      0.00348655949543     -0.17990876290609
  H   -7.34597392599300     -0.98777195266806     -0.13531491361825
  C   -2.38245714088325      1.35898607717447      0.17789964531946
  N   -2.36463645050245      0.19424916812318      0.86228312842703
  C   -1.22477943724940     -0.41004775232716      1.20880302597342
  N   -1.20837625034973     -1.59339766781194      1.83844819778464
  C   0.00066247498555     -2.09846060529426      2.11298562405753
  N   1.20936836167211     -1.59269780427098      1.83827386385095
  C   1.22499575354852     -0.40933711578816      1.20862886360948
  N   2.36445266950136      0.19560448993947      0.86192492915387
  C   2.38150501938458      1.36034432526753      0.17752781768557
  N   3.62164290923211      1.92008439140502     -0.07965864015735
  C   3.79757763525874      3.31643916883298     -0.16990144944985
  N   5.03121548553342      3.69430218909127     -0.23246353825611
  C   5.78339602139685      2.51311112441981     -0.19796750024611
  C   4.94203160141553      1.38334320274568     -0.08507458144040
  C   5.50123220396662      0.07933873100091     -0.11930985517131
  N   4.69903096734617     -1.05118089390849     -0.06900963892051
  H   3.81909835238414     -0.89960287866896      0.42893364178642
  C   5.02101438479083     -2.38264255988809     -0.35660806877950
  C   4.33184116527461     -3.39480912101878      0.34442917025274
  C   4.55734840659465     -4.73978405087148      0.05249240488420
  C   5.47926546373788     -5.11299161071321     -0.93172628180453
  C   6.15711915357831     -4.11311889954670     -1.63604451748136
  C   5.93185109398918     -2.76189003914514     -1.36369719719295
  H   6.44146640125118     -1.99857510338133     -1.95222974479995
  H   6.86595572460709     -4.38422182998813     -2.42308121920047
  H   5.66080990928416     -6.16717936530280     -1.15180030249088
  H   4.00995433910935     -5.50530228526932      0.60873086072969
  H   3.60938197081730     -3.10982890928301      1.11434586033485
  C   6.90525383589089      0.00766303280460     -0.18096764755526
  C   7.75348851089640      1.14292663211016     -0.26890317558938
  N   9.12809262167431      0.98568756113043     -0.32636957832694
  C   9.98369568193154      2.15493759360558     -0.39134523293374
  H   9.82998227661455      2.82743949124905      0.47306474788501
  H   9.81254997868758      2.74925597299156     -1.30919483380433
  H   11.03391396849278      1.83581984060153     -0.38735509410539
  C   9.71840981662539     -0.33878746526501     -0.32520916267643
  H   9.48487443323753     -0.90129254310828      0.59851511064981
  H   10.80996668408190     -0.24676340763609     -0.39507667601195
  H   9.37551984296832     -0.94955558876674     -1.18148796876552
  C   7.16949990879164      2.42893567105349     -0.29395520275738
  H   7.74430619573399      3.34597669181956     -0.39450215672029
  H   7.34643909217112     -0.98332111944696     -0.13651524312905
  H   2.93874061879471      3.97957732865488     -0.11550548041088
  C   1.17256105936715      1.99296563993727     -0.23067548322573
  C   -0.00047434884552      1.35751064323835      0.21867731078207
  C   -1.17394007494534      1.99228682777787     -0.23051069926187
  C   -0.69662640935389      3.08575392119100     -1.04620929139159
  C   0.69450255359883      3.08621557975472     -1.04622767612144
  H   1.31014197354251      3.78467877762893     -1.60814580444983
  H   -1.31274561465217      3.78382016936516     -1.60809727589983
  N   -0.00008908973038      0.19607444689239      0.91260235482259
  H   0.00097944062764     -3.06479200679353      2.62783953137381
  H   -2.94133430367635      3.97787554506426     -0.11521292815331
  H   -7.74656408392045      3.34124828721659     -0.39360592330331
  C   -9.98502118747675      2.14885129013804     -0.39138649062319
  H   -9.81366496407659      2.74262089656496     -1.30955979229404
  H   -9.83225226557449      2.82204677709531      0.47261594677469
  H   -11.03505589293594      1.82911921338923     -0.38775218299369
  H   -9.37540515278386     -0.95493164068692     -1.18091953618683
  H   -9.48411622925391     -0.90736739432686      0.59914157244974
  H   -10.80998590365489     -0.25329929515109     -0.39366315846348
