70
Coordinates from ORCA-job ./opt_b3lyp_cdz
  F   -6.25016964975698     -1.74347243113273     -2.09686442651127
  C   -5.80380879920334     -2.61991244294137     -1.16679429001929
  C   -6.13039905488767     -3.96337165049750     -1.30370633717021
  C   -5.63518708795268     -4.89174889014938     -0.38280506257468
  C   -4.82005688203726     -4.45240656604794      0.66482520445331
  C   -4.52420118833764     -3.09563761127672      0.80767079814921
  C   -5.01859477164125     -2.14136801759325     -0.10247826491207
  N   -4.63223594702392     -0.79816753393383      0.01264714089940
  C   -5.46093698888256      0.31809842584913     -0.02164636207453
  C   -6.86684887650393      0.22964457332676     -0.07392558509057
  C   -7.69526409947274      1.35485143002070     -0.16990348966094
  C   -7.17153359220752      2.64528036976736     -0.20968052572724
  C   -5.78237788715445      2.76497721008605     -0.12554756523954
  N   -5.03763818901131      3.94744147612691     -0.17207978485619
  C   -3.80207246212445      3.57784792962715     -0.10741912953049
  N   -3.62096785135522      2.18213371518319     -0.00197929341777
  C   -4.93583728338273      1.63573731703771     -0.00509346978867
  C   -2.37960836208697      1.62929651334228      0.27771709953892
  N   -2.36457742190272      0.49834201035639      1.01427170842381
  C   -1.22454405748475     -0.09243792803139      1.38665261192707
  N   -0.00015989853282      0.50000331242215      1.06226476042029
  C   -0.00041128848221      1.62886917957283      0.31969288942096
  C   1.17235466797295      2.24600692840977     -0.15545461156955
  C   0.69438410410107      3.30706817267847     -1.01367471299099
  C   -0.69597138245101      3.30671904774721     -1.01371980563245
  C   -1.17345526062099      2.24542469621136     -0.15552300940918
  H   -1.31353945733826      3.98248682121102     -1.60082146861804
  H   1.31164410661444      3.98314320386437     -1.60074577646467
  C   2.37878627572416      1.63048315424762      0.27787850392216
  N   3.61990561528350      2.18389015682191     -0.00173672700537
  C   4.93503059782590      1.63810348745676     -0.00465669231530
  C   5.78106484750967      2.76773188066999     -0.12499013079179
  N   5.03578255582195      3.94984719768957     -0.17172313793220
  C   3.80037822578626      3.57968175777600     -0.10724819043902
  H   2.94329973412196      4.24633121867314     -0.06348354279829
  C   7.17029312688054      2.64868272554967     -0.20884207332044
  C   7.69461653200803      1.35849989487054     -0.16889819280391
  C   6.86670822532449      0.23290778842641     -0.07305049530832
  C   5.46074258255080      0.32070602851355     -0.02107957467978
  N   4.63251587261323     -0.79591551915129      0.01308148149555
  H   3.77334080894561     -0.63458833195084      0.54463379148753
  C   5.01935850095893     -2.13899292264478     -0.10178342771731
  C   4.52483322639486     -3.09332154843912      0.80824443405144
  C   4.82116045848794     -4.45001343542665      0.66567738601636
  C   5.63688402420950     -4.88923065250844     -0.38154463332424
  C   6.13221160408917     -3.96080537460253     -1.30233146947108
  C   5.80516608665473     -2.61742600925690     -1.16570870071841
  F   6.25163255767059     -1.74097395696253     -2.09572519515761
  H   6.75435897046120     -4.26061890786408     -2.14767978617621
  H   5.88254967857631     -5.94739677623912     -0.49019978927490
  H   4.42004595814064     -5.16571653799834      1.38666313704992
  H   3.88766837600588     -2.74765122388073      1.62640233461936
  H   7.32257089308220     -0.75552602337032     -0.03468405944274
  H   8.77562228286793      1.20860073850380     -0.21511980697592
  H   7.79306936405489      3.53785839528727     -0.30736719129981
  N   2.36425490041639      0.49952645197314      1.01443910054867
  C   1.22449323519138     -0.09182014597524      1.38674184753062
  N   1.20909030312556     -1.24600306942268      2.06627423814917
  C   0.00035505642346     -1.74019109969022      2.36273716007691
  N   -1.20860776141655     -1.24661733370096      2.06617290839603
  H   0.00056895666272     -2.68324994225199      2.91884179374498
  H   -2.94530655069128      4.24489175870301     -0.06349490440961
  H   -7.79470327094236      3.53417102424549     -0.30829176703204
  H   -8.77618955200497      1.20444862363394     -0.21635941518635
  H   -7.32225453112071     -0.75900932440461     -0.03569709135964
  H   -3.77326060964332     -0.63655078549986      0.54442568916870
  H   -3.88751572521452     -2.74986327471460      1.62615851849387
  H   -4.41904841022990     -5.16806887831517      1.38590991846876
  H   -5.88048529444644     -5.94997737480531     -0.49168511518110
  H   -6.75210180499925     -4.26327646214089     -2.14934916351111
