94
Coordinates from ORCA-job ./opt_b3lyp_cdz
  C   -11.41444905149355     -1.35709528628714     -0.11383079420047
  H   -12.24977984566079     -1.93616622833037     -0.53468847273260
  H   -11.59111654412733     -1.24778243324372      0.96972662441008
  C   -11.24149019967318      0.02513023530953     -0.76104617478895
  C   -9.78843661045149      0.38774286111507     -0.42333939759677
  N   -9.11535258834077     -0.90745435264264     -0.36739603130314
  C   -7.74820899092727     -1.06562491368850     -0.30348936879789
  C   -7.16735328616371     -2.35166169255639     -0.35874303065763
  C   -5.78187710432626     -2.43867859035003     -0.25738797692819
  N   -5.02756055728240     -3.61724768760921     -0.32332567961355
  C   -3.79462758606638     -3.23927441053999     -0.24852331032677
  N   -3.62068437677143     -1.84592239898761     -0.11951097124004
  C   -4.94191835250651     -1.31054282375233     -0.11191249583942
  C   -5.50050188125808     -0.00505065695972     -0.11381164709047
  N   -4.69837030734699      1.12305368027730     -0.02585294271207
  C   -5.01540195083040      2.46126728754394     -0.28435502562237
  C   -4.32291964799282      3.45508757558531      0.43962043847208
  H   6.83630259934932      4.53331363005919     -2.31122834713201
  C   6.13013423748401      4.23997600386676     -1.52974971311626
  C   5.91411444530943      2.88158015281745     -1.28748907539935
  C   5.00677363184478      2.47385463604594     -0.28834995849488
  C   4.31213562323424      3.46584671915586      0.43606696891024
  C   4.52888184250626      4.81836063015364      0.17427090109801
  C   5.44699814959800      5.21960522669147     -0.80247435777413
  H   5.62154733032068      6.27958815904284     -0.99908270244052
  H   3.97738505071754      5.56768861162742      0.74825393658393
  H   3.59255895460960      3.15911868938695      1.20031348127967
  N   4.69352822791845      1.13480522313066     -0.02957081673500
  C   5.49859763320309      0.00883462029183     -0.11812147611976
  C   6.90193958156788      0.08599716207461     -0.18347869808058
  C   7.74893509020133     -1.04586256148831     -0.30937033549334
  N   9.11561735229957     -0.88412302942283     -0.37422961056983
  C   9.78528407395568      0.41282785456418     -0.43057416290723
  C   11.23903914244371      0.05401856923364     -0.76931479480259
  H   11.36064100027350     -0.02198637284958     -1.86329374329749
  H   11.95430996769629      0.80475013615887     -0.40192688773178
  C   11.41605894111834     -1.32776800967922     -0.12226111601361
  H   12.25259793678610     -1.90464797022400     -0.54372701281067
  H   11.59321280306705     -1.21802134443606      0.96117288094794
  C   10.05742188099377     -2.00114750689404     -0.36219773062389
  H   10.04252629605154     -2.55182233518865     -1.32480404975764
  H   9.80437390026361     -2.72643061665628      0.43010958073833
  H   9.32878823976507      1.06637113619095     -1.19356092486892
  H   9.71646839926960      0.94739135607989      0.53885370161161
  C   7.17140421374534     -2.33341687883171     -0.36421108634820
  C   5.78623370211228     -2.42405079622553     -0.26185941545713
  N   5.03493188059828     -3.60457736179578     -0.32722645515866
  C   3.80107450695387     -3.22980635485121     -0.25149238343708
  N   3.62361722634735     -1.83690650018354     -0.12235799243376
  C   4.94345099670576     -1.29810861042915     -0.11580214833131
  C   2.38297243676657     -1.28724561378354      0.15293860866168
  N   2.36436351066382     -0.14251183374825      0.87068276399829
  C   1.22403528452764      0.44985655305607      1.23560307636964
  N   -0.00022233219438     -0.14867596361130      0.92302268368282
  C   0.00089894391155     -1.28975989490903      0.19590396340213
  C   -1.17173859644678     -1.91283844932840     -0.27129046480899
  C   -0.69312692898969     -2.98155023091329     -1.11836377753068
  C   0.69805264036117     -2.97979158595827     -1.11896784247549
  C   1.17470019133499     -1.90995031033654     -0.27220967234652
  H   1.31462138566221     -3.66046023086103     -1.70133371324553
  H   -1.30848098744606     -3.66377140627846     -1.70019987544145
  C   -2.38121223547815     -1.29311389829310      0.15478448512911
  N   -2.36486103539472     -0.14836978485349      0.87257080159608
  C   -1.22570840974154      0.44681326457047      1.23659363346762
  N   -1.21088203269312      1.61145221446798      1.90051811103680
  C   -0.00251133586668      2.10993933766980      2.18948431620757
  N   1.20685842480745      1.61445861459728      1.89953640369780
  H   -0.00347228431092      3.06065922599185      2.73266313721733
  H   2.94321561650446     -3.89536836077759     -0.21322612059932
  H   7.75570803910457     -3.24041143574110     -0.50368462567203
  H   7.34891665622541      1.07331916869399     -0.10272712392720
  H   3.81646795099260      0.96645366803967      0.46809983722379
  H   6.42810151132829      2.13485079347778     -1.89317921107249
  C   -4.54350181780016      4.80702638027163      0.17805412609120
  C   -5.46341095712403      5.20584407387406     -0.79799954039029
  C   -6.14444213156750      4.22441594177660     -1.52482434369431
  C   -5.92457893539042      2.86659335938347     -1.28280209696967
  H   -6.43700261874030      2.11851036365331     -1.88815307915144
  H   -6.85198751223503      4.51589089199253     -2.30575470133723
  H   -5.64096819125156      6.26536290432107     -0.99441620632917
  H   -3.99361188241108      5.55780979027091      0.75167682580654
  H   -3.60197599188778      3.15025278725433      1.20333648255619
  H   -3.82054538838984      0.95706877213207      0.47126122329460
  C   -6.90408507639596      0.06844011198168     -0.17818735010215
  H   -7.35357844703257      1.05459570202655     -0.09711625690031
  H   -2.93500321752705     -3.90260104162088     -0.21095602111466
  H   -7.74938131738626     -3.26017806173644     -0.49783759011882
  C   -10.05423059716973     -2.02693063695214     -0.35471693923451
  H   -10.03857293375320     -2.57756187111357     -1.31733678156587
  H   -9.79874050334422     -2.75155550003372      0.43740830841442
  H   -9.72034044308744      0.92253739524393      0.54601147738480
  H   -9.33418126945606      1.04243769238769     -1.18667870779420
  H   -11.95845719534873      0.77400561503284     -0.39317672938524
  H   -11.36366439162990     -0.05122538944612     -1.85493701798176
