100
Coordinates from ORCA-job ./opt_b3lyp_cdz
  C   -11.11582745642496      0.83565380123175      2.30368999422880
  H   -11.35011657853284      0.97744370118701      3.37206980104905
  H   -12.08017545817636      0.64532403096196      1.79406738751680
  C   -10.19827408405641     -0.38107699897059      2.10994178211357
  H   -9.29324463124665     -0.27128982719941      2.73495696788808
  H   -10.70600873284769     -1.30556772668749      2.43644482799630
  C   -9.76839379760883     -0.52178728023861      0.63873952577564
  N   -9.14681730543290      0.70699880800001      0.13787060744986
  C   -7.75831051851284      0.88194261798135      0.15708917365387
  C   -6.90631091676803     -0.22192556995659     -0.10481050600116
  C   -5.50309791361803     -0.14816777616503     -0.14805573226451
  N   -4.70692839751787     -1.26134168698987     -0.37325723990560
  C   -5.03123138110461     -2.61849092064645     -0.26841574367878
  C   -5.94463369453630     -3.12859250747491      0.67686694609501
  H   6.87548718157192     -4.88970928171963      1.50409302915442
  C   6.16574533786878     -4.51477753562709      0.76177795604843
  C   5.48852504479926     -5.41041345579454     -0.07162088470519
  C   4.56579289584896     -4.90770239849143     -0.99553354985240
  C   4.33829790139813     -3.53585551705596     -1.10160819632354
  C   5.02664889673057     -2.62763805964572     -0.26974542107934
  C   5.93937007896611     -3.13935672009932      0.67531492153391
  H   6.44893988431218     -2.46231297682727      1.36154415618870
  N   4.70436757910174     -1.26993923429384     -0.37397352091976
  C   5.50263709866307     -0.15817066238251     -0.14926751355051
  C   6.90575016899917     -0.23445282845126     -0.10670414572724
  C   7.75985145942765      0.86786701711262      0.15483447536129
  C   7.17372943848564      2.13156827553866      0.37281125408804
  C   5.78659269570714      2.23523601496676      0.28257544057256
  N   5.03787122437956      3.39866193673548      0.49952800040622
  C   3.80263502455346      3.03668512333168      0.38695947837919
  N   3.62380944435707      1.66986629602010      0.08982633898439
  C   4.94271053406961      1.13719911906889      0.00864715685737
  C   2.38255645528044      1.15472794395267     -0.24544499457222
  N   2.36440163960486      0.10381315179963     -1.09373044022280
  C   1.22420241990459     -0.44314954242607     -1.52448486150640
  N   -0.00003306574786      0.11309096254861     -1.14164277631185
  C   0.00096781602153      1.15941345717208     -0.28428205921928
  C   -1.17178337597616      1.72297122162405      0.25322593715933
  C   -0.69313186595178      2.68438489831787      1.22049669856256
  C   0.69793002053495      2.68316444521659      1.22039711293971
  C   1.17477239874762      1.72084618298067      0.25312319890965
  H   1.31444117940114      3.29060208000404      1.87882819954002
  H   -1.30850662872911      3.29291426418440      1.87898251968067
  C   -2.38062178724908      1.15905566475375     -0.24523846062487
  N   -3.62089580600631      1.67651835265161      0.09017316676510
  C   -4.94077785905491      1.14620475174608      0.00963320735033
  C   -5.78255792470382      2.24579141894089      0.28379880808567
  N   -5.03166819707024      3.40789930469715      0.50023818197813
  C   -3.79712673112509      3.04368569975249      0.38718545751036
  H   -2.93856486731028      3.70760486991485      0.43560469160712
  C   -7.16985407176576      2.14460054060169      0.37466501388491
  H   -7.73743697019771      3.03402104259814      0.63724070823774
  N   -2.36448464115188      0.10811536131449     -1.09352549954568
  C   -1.22531045261873     -0.44092681010372     -1.52437237252529
  N   -1.21039042306826     -1.51905292092034     -2.32063260212624
  C   -0.00199960295107     -1.98008503870043     -2.66646812347085
  N   1.20725457759595     -1.52123841386163     -2.32075767305614
  H   -0.00283327269511     -2.86050112381489     -3.31738046735229
  H   2.94530321559273      3.70215668516069      0.43583490795915
  H   7.74302426210032      3.01991693299645      0.63531719815587
  N   9.14798279738149      0.69054139113507      0.13511807364791
  C   10.05042236797866      1.83378477236556      0.25839480786148
  H   10.94766392745208      1.60818242901779     -0.34932010554046
  H   9.58605823578588      2.72077371324649     -0.19151106778010
  C   10.48674131138089      2.08602125708621      1.71062992154311
  H   11.19944034192898      2.92831986793722      1.74690458849784
  H   9.60713225285043      2.37951197449481      2.31094682242052
  C   11.11995866689200      0.81508656906937      2.29839397739602
  H   11.35580605273223      0.95610656155667      3.36653368558904
  H   12.08334403101126      0.62322042538051      1.78752985259283
  C   10.20003454878307     -0.39997057982666      2.10543372616034
  H   10.70661573579887     -1.32543590356679      2.43096685856480
  H   9.29602425305657     -0.28883657717975      2.73168815004937
  C   9.76788643434076     -0.53953568914074      0.63477735986419
  H   9.08404318459823     -1.38745632985298      0.51425040817171
  H   10.65440917350525     -0.75447684620311      0.00837694346560
  H   7.34736067690901     -1.19897308043821     -0.34336134640567
  H   3.82515549400725     -1.04923409880528     -0.84625574931398
  H   3.61526823328416     -3.14974388495219     -1.82551612624370
  H   4.01918735517951     -5.59106959121450     -1.65072744400289
  H   5.67154764878407     -6.48446489382937      0.00270414724061
  C   -6.17296189211712     -4.50367253932306      0.76380710384999
  C   -5.49712402617855     -5.40057426503992     -0.06933889694279
  C   -4.57375201211341     -4.89948361115849     -0.99349647894155
  C   -4.34427566314675     -3.52801195036019     -1.10003006576564
  H   -3.62075882345664     -3.14321394911753     -1.82415112411088
  H   -4.02816929889682     -5.58380726707075     -1.64853990164158
  H   -5.68170240931189     -6.47433290869782      0.00535500878238
  H   -6.88319124606668     -4.87732073322990      1.50631101973915
  H   -6.45319813638399     -2.45065517764409      1.36295448302653
  H   -3.82755055358288     -1.04219821569095     -0.84595096822516
  H   -7.34983556314634     -1.18561199161047     -0.34128289211560
  C   -10.04702720369717      1.85192383364138      0.26204501425641
  H   -10.94540967958990      1.62781430676133     -0.34451943424628
  H   -9.58159810676368      2.73796250040753     -0.18864916907545
  C   -10.48106682368132      2.10527761578960      1.71475792502249
  H   -9.60018083188076      2.39730383685725      2.31391295058677
  H   -11.19217795349282      2.94889080290465      1.75178000831150
  H   -10.65620039399764     -0.73507762855038      0.01360949894932
  H   -9.08639808109556     -1.37107324749169      0.51733847994215
