110
Coordinates from ORCA-job ./opt_b3lyp_cdz
  N   4.66572989145767      1.13554014582715      0.45147997678159
  C   5.47363859952722      0.08070870774181      0.06818299689461
  C   6.87909337328499      0.17799500070606     -0.00861465032381
  C   7.69802719481088     -0.88012267844541     -0.43762685041636
  N   9.10636581280984     -0.67554303583775     -0.49892171343741
  C   10.06698314157754     -1.37313363381763      0.24350994978014
  C   11.35574242897688     -0.86900188268590     -0.07975258991496
  C   11.16146641033336      0.17744361085752     -1.06547357178554
  C   9.76228249332127      0.26680238451856     -1.29870181668283
  C   9.23075738150952      1.16472216501095     -2.23301430316671
  C   10.12117669642132      1.99195955105056     -2.91968448475211
  C   11.50877526634832      1.92735276330673     -2.68950802881521
  C   12.03374780594334      1.02111546826408     -1.76881313917709
  H   13.11186285181033      0.96470389261279     -1.59987555924082
  H   12.17820826735471      2.58978521229926     -3.24263509202833
  H   9.73048518553134      2.70060654722401     -3.65399618782445
  H   8.15794175717888      1.20878506517954     -2.42672270662502
  C   12.48636558033136     -1.40773721309457      0.55203905528627
  C   12.31982586848654     -2.42626355678982      1.48945780478089
  C   11.03425177127946     -2.90715637491233      1.80449276965954
  C   9.89254738129097     -2.38946944425559      1.19091636961597
  H   8.89920821507349     -2.76384075310506      1.44221573271663
  H   10.92478309055668     -3.70206076228364      2.54616498793782
  H   13.19238918121041     -2.85484821601981      1.98734635579612
  H   13.48403720881146     -1.03100461940422      0.31374472533873
  C   7.15890669194445     -2.11749215106509     -0.79354276607883
  C   5.77399600445405     -2.25483949985746     -0.67882288477107
  N   5.02573926707719     -3.38811584657446     -1.00616144900345
  C   3.79386807826365     -3.05109368950053     -0.81212593738338
  N   3.62079028315695     -1.73134873105070     -0.34900173785877
  C   4.93680594696950     -1.19793424590632     -0.24695500216258
  C   2.37855690924218     -1.26479415655583      0.06443444469988
  C   1.17318946191149     -1.75326932980405     -0.50996800486544
  C   0.00012988167452     -1.27546893706647      0.10496020100832
  C   -1.17289187585612     -1.75330811321105     -0.51000583386866
  C   -0.69484571908970     -2.56497295565738     -1.60742259383595
  C   0.69520857566494     -2.56494024307833     -1.60740722046168
  H   1.31166673193771     -3.07254227075419     -2.34569780056651
  H   -1.31126201766361     -3.07259974288973     -2.34573111214362
  C   -2.37830083268939     -1.26486248789680      0.06434473280153
  N   -2.36478158606337     -0.35577572555363      1.05984554679557
  C   -1.22442552647833      0.12295986561127      1.56966995317350
  N   0.00010273700747     -0.36901108514778      1.10637669920677
  C   1.22459991020793      0.12300860413798      1.56970363856984
  N   1.20846923574602      1.06792390940017      2.51770043273351
  C   0.00004245449508      1.47166231913730      2.92991865932377
  N   -1.20835658088452      1.06786965578363      2.51767335361016
  H   0.00001659879636      2.24374961150557      3.70588364828857
  N   2.36498925517657     -0.35569438477104      1.05992034494312
  N   -3.62049794346891     -1.73149387356936     -0.34910848388188
  C   -4.93657704782154     -1.19819248568442     -0.24710669989981
  C   -5.77365379556647     -2.25520079162176     -0.67895692617255
  N   -5.02527883891789     -3.38841227477501     -1.00625610817325
  C   -3.79344640116621     -3.05126072220941     -0.81222370006999
  H   -2.93638139876066     -3.71114548949507     -0.91624505257391
  C   -7.15857501460905     -2.11802276902935     -0.79371955197735
  C   -7.69786119796898     -0.88070379120885     -0.43787053639938
  N   -9.10620845377360     -0.67626623860107     -0.49921418649615
  C   -10.06671867390286     -1.37403466971369      0.24320634921892
  C   -11.35556281290006     -0.87008912575190     -0.07999618177300
  C   -11.16144556114243      0.17644544182444     -1.06566154840446
  C   -9.76227870116784      0.26603059786937     -1.29891450036410
  C   -9.23090593071181      1.16406975264195     -2.23319184695590
  C   -10.12145859582350      1.99120855603096     -2.91980889778217
  C   -11.50904159299529      1.92638177324996     -2.68961388074011
  C   -12.03386204177985      1.02001940967279     -1.76895191959066
  H   -13.11196591518098      0.96343021393211     -1.60000252272930
  H   -12.17858199720185      2.58874179658344     -3.24269763052641
  H   -9.73087501539292      2.69994388783068     -3.65409300622520
  H   -8.15810087453668      1.20831374528766     -2.42691939933697
  C   -12.48607785993760     -1.40901865673272      0.55183769872872
  C   -12.31934797149333     -2.42752888726262      1.48923509778929
  C   -11.03368503242724     -2.90820998341946      1.80422436198802
  C   -9.89207719160287     -2.39034174521686      1.19062009853826
  H   -8.89867753564728     -2.76454740931565      1.44191239037207
  H   -10.92397030737100     -3.70309248784731      2.54589117581451
  H   -13.19182315222476     -2.85626659881296      1.98714513270981
  H   -13.48381733731556     -1.03243490209513      0.31359184694069
  C   -6.87904494346064      0.17752896073060     -0.00891972090823
  C   -5.47358008445235      0.08041114576793      0.06792958878933
  N   -4.66582913695460      1.13538693255868      0.45115201710182
  C   -4.99691711382173      2.49167952770306      0.60863908544946
  C   -4.33222130439147      3.21700530765785      1.61800742587812
  C   -4.56559322298464      4.58283895721651      1.77797556478036
  C   -5.47167432241470      5.25329610358560      0.94943759864503
  C   -6.12652465177564      4.53835414535602     -0.05771194145444
  C   -5.89084035717988      3.17364781054976     -0.23886844369704
  H   -6.38591976616503      2.64639073213685     -1.05436121884974
  H   -6.82672522216538      5.04823516503978     -0.72407505501895
  H   -5.66086550733036      6.32040080868225      1.08338028747394
  H   -4.03886300245245      5.12593511535234      2.56679110325306
  C   5.89041853146091      3.17400964488516     -0.23848440360609
  C   4.99659998522909      2.49188146838243      0.60900263166703
  C   4.33177693551062      3.21707991522651      1.61837898096293
  C   4.56492571311837      4.58294817563919      1.77837605304471
  C   5.47090481502401      5.25356752080611      0.94985748015698
  C   6.12587873346173      4.53875089331735     -0.05730075621654
  H   6.82600090859731      5.04875811626470     -0.72364925534948
  H   5.65992144853054      6.32070071762874      1.08382092542669
  H   4.03810057745962      5.12594344246059      2.56719745056192
  H   3.62439233803633      2.69715807830835      2.27040054876882
  H   6.38558972476055      2.64684597299607     -1.05398141934545
  H   -3.62475621181829      2.69721093636896      2.27004362068054
  H   -3.80007788376085      0.83620081922526      0.90471399002533
  H   -7.35700339578871      1.10531298195127      0.29979027501884
  H   -7.77346257899754     -2.93735235845178     -1.16337394858210
  H   2.93686764808532     -3.71105870986170     -0.91616844395496
  H   7.77391996824915     -2.93672652198555     -1.16319946189087
  H   7.35695546970719      1.10580429901523      0.30016761482634
  H   3.80002524282396      0.83619970776145      0.90502926515970
