19
Coordinates from ORCA-job ./opt_b3lyp_cdz
  F   3.43929064780916     -1.09799101990120      0.58224257609634
  C   2.93589384848029     -0.00028037824052      0.00493438213840
  C   1.40156928548366     -0.00167343772368      0.03701872778247
  N   0.83331299039066     -1.20363412157725      0.02882231890277
  C   -0.50621709529619     -1.22080733951570      0.01321440796968
  N   -1.18511361697667     -2.36921509606478      0.00373085151358
  C   -2.51803132068086     -2.26668590698665     -0.00825262996888
  N   -3.27045943487923     -1.16593505189287     -0.01251425380204
  C   -2.61456885530484      0.00039737176300     -0.00531514450832
  N   -3.26939377727970      1.16717702765520     -0.01131186412825
  C   -2.51588404940039      2.26734678181154     -0.00606583305566
  N   -1.18301501777787      2.36869859415941      0.00568153778149
  C   -0.50494791543031      1.21962461127475      0.01404223862514
  N   0.83425818051407      1.20102607055156      0.02936190654783
  N   -1.20732007108616     -0.00030398100764      0.00811751915832
  H   -3.06212507366805      3.21719756379000     -0.01212211698203
  H   -3.06505128265443     -3.21607938204706     -0.01543344745982
  F   3.43636193301318      1.07387503497407      0.62837411666075
  F   3.35079104316541      0.02765284935793     -1.27888079726780
