64
Coordinates from ORCA-job ./opt_b3lyp_cdz
  N   4.68357279347871      1.98736638626379      0.71486710788274
  C   5.45412516914412      0.89678814408497      0.36851906191645
  C   6.85570106538887      0.94052261099470      0.52247354076513
  C   7.69112519961535     -0.16138695046842      0.27905435762439
  N   9.09350036806341     -0.01997004608695      0.46524554786465
  C   9.94541882867129     -0.94726409585487      1.02637788811343
  N   11.18780137411309     -0.51998021954330      1.07804425979879
  C   11.15686470299304      0.74292479961197      0.52252548746411
  C   9.87917569448255      1.07828826239322      0.14320343502384
  H   9.46456897696558      1.95050385801343     -0.35216854096893
  H   12.06048490782471      1.34088157289760      0.42019146888829
  H   9.58024248940080     -1.90035461486708      1.40307965116518
  C   7.16705895447083     -1.38838301560296     -0.13272543351947
  C   5.78088570863652     -1.45720564103964     -0.28590149390049
  N   5.04737270030734     -2.58511713589983     -0.66114570796408
  C   3.81089413174279     -2.20762970197639     -0.64689100676455
  N   3.62167675862969     -0.85854775865427     -0.29479904068356
  C   4.93043783172551     -0.34638887872631     -0.07025226872558
  C   2.37593543376459     -0.24742743451621     -0.35450332359624
  N   2.35873482562028      1.07403664957993     -0.61416992839178
  C   1.21521370830222      1.75758581477620     -0.73527745542178
  N   1.19561305924296      3.08186261048310     -0.92737158909733
  C   -0.01520034264799      3.64764649321920     -1.01340036509392
  N   -1.22237810884951      3.07487053348829     -0.92335949518254
  C   -1.23369989103956      1.75049366507326     -0.73132532596997
  N   -2.37279112893521      1.06031354900088     -0.60659391490059
  C   -2.38161289190656     -0.26126990400598     -0.34709124324704
  N   -3.62371029297623     -0.87926319627113     -0.28371141571863
  C   -4.93499750565907     -0.37337618589973     -0.05906363328136
  C   -5.77996812931039     -1.48918424600430     -0.27167846957888
  N   -5.04071502932860     -2.61416980095192     -0.64491848072626
  C   -3.80628737288621     -2.22999446346906     -0.63297659315250
  H   -2.95586106304090     -2.84125596679193     -0.92206021774323
  C   -7.16585709532201     -1.42779710552907     -0.11531242845313
  C   -7.69627468645030     -0.20261314802608      0.29349205735469
  C   -6.86589388029228      0.90258423456706      0.53968978606770
  C   -5.46426823645978      0.86653682665367      0.38156824227610
  N   -4.69909145693453      1.96063979556946      0.72843537511757
  H   -5.21821609517253      2.83007322846344      0.79981308897087
  H   -3.82333901613456      2.04410159800888      0.20895422057267
  H   -7.31484656587085      1.82758527422969      0.90671913226024
  N   -9.09976004314489     -0.06022523665539      0.47005946482283
  C   -9.87271440394779      1.02588516710083      0.11789160480050
  N   -11.14632226520427      0.84401750220973      0.38891300076885
  C   -11.21807353275288     -0.41608954786751      0.94749513754744
  C   -9.97405513459207     -0.99749481043560      1.00244785616619
  H   -9.62209516737809     -1.94762736370024      1.39162116057734
  H   -12.16415210042681     -0.83460739472567      1.28546432158584
  H   -9.44078884802576      1.90008213502794     -0.36458847028886
  H   -7.78666923598071     -2.29711613555631     -0.32561462543452
  C   -1.17399969888838     -0.99392667664911     -0.17557753212289
  C   -0.00295134332406     -0.24173824291005     -0.39026549937148
  C   1.17319757592321     -0.98704666094022     -0.17932239912043
  C   0.69937974040736     -2.29115982382410      0.22675688459663
  C   -0.69110494927600     -2.29523900545041      0.22897082256541
  H   -1.30286473175408     -3.14342851534165      0.52704080945268
  H   1.31719676291540     -3.13567955026755      0.52276563598323
  N   -0.00716463056785      1.08241996315277     -0.65594846003820
  H   -0.01862352723821      4.73109997101340     -1.17187712139922
  H   2.96330814303907     -2.82281868842433     -0.93601952636916
  H   7.79194420168212     -2.25334676313336     -0.34884706017053
  H   7.30183000523738      1.86939418887755      0.88332525956340
  H   5.19837552313613      2.85933779753908      0.78601845552870
  H   3.80688343939138      2.06615447017518      0.19620838861077
