80
Coordinates from ORCA-job ./opt_b3lyp_cdz
  C   -3.08358208233476     -4.06575396110916      0.90026549094509
  C   -3.97640419626551     -2.98936211166791      0.36745896521661
  N   -5.21908507065697     -3.19610822098318      0.04424669373316
  C   -5.75967411986755     -1.95309223109451     -0.26799495279752
  C   -7.04549433097612     -1.68638575759096     -0.75256844959455
  C   -7.33996759600453     -0.35828247430410     -1.03981542809806
  C   -6.40069302779145      0.66782930287404     -0.84576013935919
  C   -5.09388404924907      0.43609650910750     -0.36221454039779
  N   -4.11566260547935      1.40871096515232     -0.19502331708754
  H   -3.51431066987333      1.19255866263530      0.60001790652737
  C   -4.23709808683676      2.86702773026759     -0.41376294062910
  C   -5.28365454766844      3.52887162855834      0.51100924791478
  H   -6.30377960854038      3.16484115929112      0.32418888482932
  H   -5.28579005025352      4.62222188111785      0.36706777905018
  H   -5.04371394394470      3.32486393618517      1.56715007338988
  C   -2.84909463802415      3.43637400270738     -0.05899827052317
  H   -2.07238373733641      2.98860864886809     -0.69995438185684
  H   -2.59320302767271      3.23087074993013      0.99401652636635
  H   -2.83168328377538      4.52746637959578     -0.20524062161941
  C   -4.51559267763618      3.17972088990168     -1.89657791133080
  H   -4.47252006334209      4.26833621860249     -2.06234725796507
  H   -5.50163941365896      2.83188640428520     -2.23347621137154
  H   -3.75537056073973      2.70193042334562     -2.53455598351715
  C   -4.80804135031573     -0.92780255444472     -0.07506484969940
  N   -3.62353743733326     -1.61589942538716      0.30178448328710
  C   -2.37576477083971     -1.11276190135173      0.68246436650680
  N   -2.37273674167887     -0.08582932415079      1.56037390489333
  C   -1.23180612837348      0.44324884198997      2.01803913512392
  N   -0.00085012317145     -0.11379927424623      1.63507626646135
  C   -0.00056058644029     -1.13418441446788      0.75516685416683
  C   1.17217531417263     -1.66638552523369      0.18548744968851
  C   0.69457946318893     -2.56657508400123     -0.84235012272359
  C   -0.69465251528079     -2.56654056926803     -0.84283695056605
  C   -1.17292170963023     -1.66636429618109      0.18469743339350
  H   -1.32147464522279     -3.12532574568358     -1.53445687382702
  H   1.32185764719699     -3.12539391103217     -1.53353028911091
  C   2.37469377462887     -1.11281810446492      0.68407355385743
  N   3.62270656251341     -1.61606147741097      0.30428344812328
  C   4.80741968229754     -0.92798617469359     -0.07190035414513
  C   5.75906974780159     -1.95334800292615     -0.26413697336383
  N   5.21808212847596     -3.19620445224933      0.04784976998032
  C   3.97527043464107     -2.98944672479129      0.37025173386714
  C   3.08203463303089     -4.06575523954690      0.90252599414221
  H   3.71660300537766     -4.93999677262548      1.09711697665388
  H   2.29018564346387     -4.35974858833156      0.19829140786439
  H   2.59238620712981     -3.76260776518586      1.84181374944585
  C   7.04522639113546     -1.68682861774944     -0.74792340321761
  C   7.33999206732971     -0.35877902485929     -1.03509923619958
  C   6.40067429562691      0.66743355837146     -0.84174924561991
  C   5.09353382311681      0.43586940196121     -0.35902499663360
  N   4.11532569338880      1.40860638000149     -0.19252417709161
  C   4.23709050477610      2.86688710887676     -0.41131684552893
  C   5.28340035405820      3.52859257012603      0.51382916347510
  H   6.30352968138728      3.16434068293211      0.32744459005685
  H   5.28581099041973      4.62193101610959      0.36980317421562
  H   5.04299490472872      3.32471294281741      1.56988863992930
  C   4.51622548705426      3.17945806253645     -1.89403918956802
  H   3.75619498288319      2.70173583215424     -2.53229665452687
  H   5.50235723853128      2.83147725929586     -2.23052759800792
  H   4.47336557968303      4.26807033101859     -2.05988550855293
  C   2.84904248066315      3.43649120072590     -0.05714128891883
  H   2.07251331695926      2.98884017952817     -0.69839735657900
  H   2.59268599490181      3.23107073058753      0.99577655017455
  H   2.83188486839340      4.52758120009471     -0.20343227832749
  H   3.51350217281465      1.19260925822254      0.60219983586640
  H   6.70636731620541      1.68539869176615     -1.06712772750327
  H   8.32845600832024     -0.09069427141751     -1.41593772190020
  H   7.75663462546476     -2.49878048455470     -0.89990903718454
  N   2.37108761038303     -0.08591031322608      1.56201028147120
  C   1.22985904415688      0.44319708388901      2.01889999126603
  N   1.20870660439608      1.50537044868208      2.83496100107282
  C   -0.00135260403120      1.95355163566388      3.19269998640730
  N   -1.21118006489012      1.50541416426258      2.83412446084965
  H   -0.00156900861896      2.81845818661415      3.86438877538099
  H   -6.70613981418537      1.68583883249254     -1.07126936681899
  H   -8.32816303257127     -0.09008023715236     -1.42126818936668
  H   -7.75688628386658     -2.49825474609006     -0.90507572786032
  H   -2.59450591908057     -3.76266964950914      1.83987258932642
  H   -3.71832661057678     -4.93996284504945      1.09443023005514
  H   -2.29130543034767     -4.35978179750919      0.19652592990559
