70
Coordinates from ORCA-job ./opt_b3lyp_cdz
  C   -3.13851325057468     -3.46002175525478      1.08656900461584
  C   -4.01052122398984     -2.37677104584066      0.53550482409680
  N   -5.26058465766822     -2.56501971135474      0.22280674213092
  C   -5.77728490981818     -1.31806786725555     -0.11022964971473
  C   -4.79848500544238     -0.31407957550234      0.05158905021482
  N   -3.62824102885543     -1.01486809514856      0.43447616216869
  C   -2.37658578214444     -0.50151159820169      0.78999616174122
  N   -2.37741848533274      0.58414546113890      1.59019243148638
  C   -1.23676639165944      1.14866627844412      2.00737749926801
  N   -0.00586670074450      0.56502005665776      1.66828523255096
  C   -0.00256040968623     -0.51746978937090      0.86675301888453
  C   1.17222481129989     -1.08249670889106      0.33217930663242
  C   0.69653900431308     -2.04617356498752     -0.63689363719821
  C   -0.69247986443517     -2.05058224659907     -0.63661453821289
  C   -1.17386644194402     -1.08994453714342      0.33264273389580
  H   -1.31530434517370     -2.65103322537927     -1.29585584329363
  H   1.32286828568249     -2.64266687560868     -1.29638477371701
  C   2.37131061016661     -0.48627223571527      0.78891047174541
  N   3.62619815918495     -0.99217793933924      0.43362474529594
  C   4.79255042973489     -0.28527530709944      0.05082012093929
  C   5.77469441104196     -1.28455444182306     -0.11713561077957
  N   5.26613864730836     -2.53395075059779      0.21896538547885
  C   4.01543320682189     -2.35251725359558      0.53290494177992
  C   3.14965100805666     -3.44108372964387      1.08339667603323
  H   2.38601075702242     -3.78686988387694      0.37180352617371
  H   2.62801373641254     -3.12349130938110      1.99996522032300
  H   3.80920680352373     -4.28563370829838      1.32087186412010
  C   7.06618266559457     -0.99220660324823     -0.56725533321556
  C   7.34098590163290      0.34280879386276     -0.86645111859834
  N   8.63069984280749      0.70744590470208     -1.34471162718202
  C   9.38958478023824      0.01807597592135     -2.26532260546279
  N   10.53413398289667      0.61427938697061     -2.51956723231392
  C   10.53299997277967      1.74498925543727     -1.72890922696274
  C   9.37031565675653      1.83012013625504     -1.00034708085827
  H   9.01913419816513      2.53760155173102     -0.25579118560464
  H   11.37469572433347      2.43504886913743     -1.72291717131055
  H   9.02682686024324     -0.89670303501866     -2.72936617252908
  C   6.36534584226899      1.34325050161890     -0.70410712931626
  C   5.06417428507231      1.07106915922881     -0.24278060042407
  N   4.10736426194353      2.07593334047904     -0.16104500710479
  H   4.50231011637053      3.01022037918864     -0.22817640782604
  H   3.49762455467603      1.98118289056898      0.65331792020029
  H   6.61627599431493      2.37285113328827     -0.96747538891744
  H   7.81443746670746     -1.77834643532364     -0.65755633839587
  N   2.36541582742715      0.59973842324916      1.58851629527232
  C   1.22128160868959      1.15685683512034      2.00640094345078
  N   1.19829588004197      2.27784494781564      2.73633423233253
  C   -0.01264208500704      2.74949777984098      3.06002377068162
  N   -1.22058891459723      2.26966167039641      2.73752269374252
  H   -0.01546338486792      3.66349243729630      3.66313863103386
  C   -5.07450073852478      1.03882750034838     -0.25183685363664
  N   -4.12651200748761      2.05078993402907     -0.16113455808064
  H   -3.52240714711175      1.96095551362530      0.65807677304931
  H   -4.52771480836357      2.98215347230393     -0.23272021647268
  C   -6.38232226363999      1.30608611048185     -0.69785746240845
  C   -7.34586597188523      0.29728496637752     -0.88051529038679
  N   -8.63371402300987      0.65905008450464     -1.36466738580084
  C   -8.91734898147775      1.56559297459581     -2.36341665190476
  N   -10.20730017878735      1.66410014960620     -2.60027263013603
  C   -10.80195889681127      0.78574059964962     -1.71743887878703
  C   -9.85574631749237      0.14924802997730     -0.94994722062596
  H   -9.92599835097341     -0.57275935304915     -0.14250011385633
  H   -11.88276626227821      0.66348176341986     -1.67904213171858
  H   -8.12768743772570      2.09126433137256     -2.89621198447206
  C   -7.06145022478671     -1.03691763605925     -0.58701678798790
  H   -7.78065026899049     -1.83793999213169     -0.75210658056260
  H   -6.66390757531928      2.34478240398009     -0.88221682414893
  H   -3.79257927594917     -4.30917799452874      1.32273956560099
  H   -2.37145343549873     -3.80002126202013      0.37586529050290
  H   -2.62030290417562     -3.13927056183933      2.00401874918261
