90
Coordinates from ORCA-job ./opt_b3lyp_cdz
  C   -9.76268545113208     -0.49860578573884      0.25411328014534
  N   -9.13700788235658      0.80007673310714      0.41352467999847
  C   -7.75734226779331      0.92819306865732      0.27871639047783
  C   -6.93496869470595     -0.22652754410661      0.20255449590721
  C   -5.52667505556588     -0.20173997072966      0.10499999097848
  N   -4.73328077808358     -1.33157163976832      0.12975420503934
  C   -5.13884984121639     -2.75352248903641      0.12978354007499
  C   -3.81528429277734     -3.54396641161536      0.13667015728771
  H   -3.22781735618085     -3.30423991439358      1.03796987541889
  H   -4.01668905351060     -4.62650684517548      0.13379402898669
  H   -3.20370233222691     -3.30390605781193     -0.74806823073316
  C   -5.93233741770373     -3.14387410770277     -1.13756178409499
  H   -6.88160818879837     -2.59605486863915     -1.22521162304192
  H   -5.33741269569314     -2.92929011578213     -2.03982100935874
  H   -6.16453298465088     -4.22201704269755     -1.12903342059855
  C   -5.91208457004379     -3.11992758618765      1.41289917938642
  H   -5.33911435240313     -2.81211171988757      2.30174510591267
  H   -6.06070980273124     -4.21111819885795      1.45769127352639
  H   -6.90243400096898     -2.64857306568014      1.47399781504696
  H   -3.83696593541511     -1.17436608692477     -0.33380302880181
  C   -4.94994458069486      1.09987891787837      0.02116649296582
  N   -3.61876263334136      1.61491547571673     -0.00608531953674
  C   -3.76920026329726      3.01590470954244      0.04160184243673
  N   -4.99533046011449      3.41718338343481      0.09760456324895
  C   -5.76687495043211      2.24850485428766      0.11006055637114
  C   -7.15370816753479      2.20065578899747      0.22609262455685
  H   -7.70628173215573      3.13386948055102      0.29307457385210
  H   -2.89879385669516      3.66111290350967     -0.03915454105414
  C   -2.38263284677529      1.04074779833080     -0.24904151771500
  N   -2.36733309513665     -0.12986306915367     -0.92436891482358
  C   -1.22721200183543     -0.73228032677462     -1.27259120144963
  N   -0.00021745184765     -0.12687835977609     -0.97888890359351
  C   -0.00016330586166      1.03483463827424     -0.28545869280824
  C   -1.17311027277910      1.67125696136442      0.16152453848048
  C   -0.69574133020942      2.76686735130659      0.97413197101482
  C   0.69572777772998      2.76709497778511      0.97365020328117
  C   1.17288801208914      1.67153703737283      0.16085212800048
  C   2.38232763226353      1.04131429844105     -0.25038981832297
  N   2.36693253301825     -0.12928208892809     -0.92573816785433
  C   1.22675621205451     -0.73197555140483     -1.27330193147508
  N   1.20882650258254     -1.91505313532049     -1.90559070836948
  C   -0.00028426058873     -2.41824795717670     -2.18119586780561
  N   -1.20936086862114     -1.91535036678107     -1.90489725358962
  H   -0.00031438061222     -3.38293897611064     -2.69972368882175
  N   3.61844612094611      1.61580014894938     -0.00814842568838
  C   3.76853386209999      3.01682583415963      0.03948691742800
  N   4.99458337782748      3.41843146315151      0.09492274346434
  C   5.76644361594985      2.24995403025625      0.10697279987305
  C   4.94977792291564      1.10110962432507      0.01841625471754
  C   5.52690454668786     -0.20035587807685      0.10188643477153
  N   4.73382693800609     -1.33041072617844      0.12685956850205
  H   3.83722967844922     -1.17334788333352     -0.33620944600048
  C   5.13981869592732     -2.75224296645090      0.12614924434946
  C   5.93195286787097     -3.14201615960739     -1.14221194198657
  H   5.33536915063695     -2.92871613037266     -2.04368161023620
  H   6.88023267208453     -2.59275494040538     -1.23149161429433
  H   6.16578364271904     -4.21980929279036     -1.13357538942038
  C   5.91466094232133     -3.11879547564028      1.40827045380151
  H   6.06169536991087     -4.21017532157481      1.45362947035970
  H   5.34363543491864     -2.80943996273746      2.29782985150474
  H   6.90588789950987     -2.64901549437699      1.46734932663524
  C   3.81649172545995     -3.54307528514392      0.13445885523129
  H   4.01822306533672     -4.62555212558403      0.13031703321250
  H   3.23034262357753     -3.30430930811464      1.03686918420764
  H   3.20348867566685     -3.30248255882780     -0.74915193253017
  C   6.93524731547023     -0.22478142023934      0.19887121487282
  C   7.75733198607173      0.93016379034087      0.27478045758149
  N   9.13707748039444      0.80252177617300      0.40901679998014
  C   9.96891253057726      1.98332043139020      0.26021617890016
  H   11.02088739000839      1.70366641012062      0.40564506452278
  H   9.87003325670292      2.45928668448971     -0.73648378080598
  H   9.72081851300519      2.74445865236358      1.01901509262690
  C   9.76308709515622     -0.49614541206255      0.25092725044180
  H   10.84481033813262     -0.39521825244916      0.41142923486976
  H   9.38742433069687     -1.21689296252517      0.99717979312325
  H   9.60399619158461     -0.93865603853543     -0.75416346277124
  C   7.15333193861019      2.20247309872599      0.22241532479311
  H   7.70568901083296      3.13582151982255      0.28930100531225
  H   7.41396508997544     -1.19459328553292      0.22469986847044
  H   2.89791101403898      3.66180236347526     -0.04082665864383
  H   1.31318332574625      3.46712105648464      1.53178686123325
  H   -1.31303684868487      3.46670174410220      1.53268392251021
  H   -7.41340882765343     -1.19646824195768      0.22879252306766
  C   -9.96923925196880      1.98072738202344      0.26580557190204
  H   -11.02095117418049      1.70094254980421      0.41291073309901
  H   -9.87198925745158      2.45666394278394     -0.73108971466982
  H   -9.72006022869140      2.74191269201478      1.02416956735170
  H   -9.60266587957736     -0.94036405644216     -0.75114573020383
  H   -9.38758498021805     -1.21985116053195      1.00018055944505
  H   -10.84455486419979     -0.39791717541985      0.41376158289911
