64
Coordinates from ORCA-job ./opt_b3lyp_cdz
  N   -4.68829662776575     -2.00274199875695      0.58971757328539
  C   -5.45789431889700     -0.88744292874656      0.32705796768935
  C   -6.85971122960434     -0.95090784499571      0.45606214756919
  C   -7.69223978912415      0.16820544064579      0.31012898391181
  N   -9.09493533671039     -0.00680467110329      0.46571602680684
  N   -9.58436024696229     -1.13846949522259      1.02996600464470
  C   -10.90536075565359     -0.98817975285703      1.01473552493411
  C   -11.29032479336577      0.24741031780625      0.43609412798560
  C   -10.09692430614771      0.85027509154723      0.09217166185661
  H   -9.88947983176254      1.79602626163501     -0.39761049504542
  H   -12.29184291667811      0.64040360024118      0.28438637621872
  H   -11.53729718547808     -1.77497418415172      1.42394996411100
  C   -7.16700602536746      1.42995551962253      0.01778862018865
  C   -5.78310113801270      1.50699067035779     -0.14317707779499
  N   -5.04842346100321      2.66580609515205     -0.40882483015559
  C   -3.81124166514669      2.28948598321022     -0.42127460642511
  N   -3.62265111677428      0.91452195825272     -0.18934127447523
  C   -4.93203407640667      0.38370943583334     -0.01770602054782
  C   -2.37934058448945      0.30881113117974     -0.30514515493553
  N   -2.36637386699202     -0.98488787414079     -0.68114122952441
  C   -1.22512949364842     -1.65754903740356     -0.86456623653711
  N   -0.00020967064221     -0.99592843621064     -0.72780380640556
  C   -0.00017139605019      0.29978390804608     -0.34554326669928
  C   -1.17369682955819      1.02655459272959     -0.06706325104258
  C   -0.69562072610399      2.28805094278434      0.45205356392255
  C   0.69526660894542      2.28811838579915      0.45184265726485
  C   1.17334753389807      1.02663251231977     -0.06733521528226
  C   2.37901403940644      0.30894789347754     -0.30568881621769
  N   3.62230461593774      0.91463930096343     -0.19025261708344
  C   4.93182245505523      0.38388784400616     -0.01919206042733
  C   5.78271077372058      1.50729051004535     -0.14424475517076
  N   5.04786025198980      2.66617608993524     -0.40924238667975
  C   3.81071982231689      2.28975405614009     -0.42154857163517
  H   2.96226791539036      2.92826970792555     -0.65144280448804
  C   7.16672057939298      1.43055542251746      0.01552605075483
  C   7.69267963500595      0.16891064495134      0.30735444712841
  N   9.09546835386780     -0.00613511730176      0.46299361293774
  N   9.58575206158625     -1.14870883293925      1.00413730486298
  C   10.90633868138517     -0.99519072462687      0.99720935833262
  C   11.29044966257958      0.25380709423838      0.44750058146571
  C   10.09692800721724      0.86132037602062      0.11254615057741
  H   9.88996706459390      1.81793986326752     -0.35572866080219
  H   12.29151126339577      0.65263485447035      0.30856663482917
  H   11.53858998318436     -1.78951700557710      1.39108632322802
  C   6.86023343444221     -0.95035940941544      0.45299561684179
  C   5.45838956252978     -0.88734603778181      0.32407014228486
  N   4.68953937005276     -2.00332350326852      0.58596172204939
  H   3.81870585871346     -2.04985360123473      0.05434373684837
  H   5.21199632063546     -2.87373296187830      0.59573321599507
  H   7.32938256135630     -1.90358569550206      0.69525473695531
  H   7.76861316757686      2.33365797783430     -0.06129468722041
  N   2.36594820012067     -0.98477759228996     -0.68163744060223
  C   1.22472424175515     -1.65748405170199     -0.86482778323758
  N   1.20897727250769     -2.95973323546134     -1.17490403247367
  C   -0.00020238143162     -3.51825999061870     -1.31320968080620
  N   -1.20938910924801     -2.95979232484574     -1.17462802086839
  H   -0.00020647351681     -4.58330041197821     -1.56801310244426
  H   1.31046395094660      3.10448763948251      0.82288097540920
  H   -1.31081509557080      3.10435347824174      0.82323734773862
  H   -2.96290714040010      2.92796282069698     -0.65172494080275
  H   -7.77000182819081      2.33254957373540     -0.05701540165693
  H   -7.32851577785266     -1.90405744791974      0.69949012395815
  H   -5.21037283081478     -2.87336229123798      0.60117047545791
  H   -3.81804968253622     -2.04966371664349      0.05715468574279
