70
Coordinates from ORCA-job ./opt_b3lyp_cdz
  C   -3.14159691489786     -3.51647859211937     -0.88424414911649
  C   -4.01420557428583     -2.40467455710105     -0.39392526738106
  N   -5.26858610868573     -2.57327478350287     -0.08666334519345
  C   -5.78331249649370     -1.30916205844086      0.18160391491312
  C   -4.79913627253053     -0.31865777313380     -0.01682990684434
  N   -3.62743473568314     -1.04079378811488     -0.35318236708590
  C   -2.37464517745944     -0.54697319217215     -0.72836256541130
  N   -2.37161085218937      0.50323565244425     -1.57519234681662
  C   -1.22917302852450      1.04465601711529     -2.01632367727206
  N   -1.20922764199798      2.13199603326721     -2.79640834245421
  C   0.00050395265846      2.59229374384699     -3.13977293769958
  N   1.21004293164047      2.13201686535677     -2.79571110374828
  C   1.22959173070642      1.04466853536464     -2.01563562824650
  N   2.37178613920055      0.50326169907600     -1.57388519937965
  C   2.37441016678722     -0.54703600855510     -0.72716134418076
  N   3.62693596511289     -1.04091043907508     -0.35136022909481
  C   4.79881853894553     -0.31882778879517     -0.01548196893380
  C   5.78298377271573     -1.30933622249747      0.18278360433750
  N   5.26811937443644     -2.57346307536377     -0.08524162583219
  C   4.01367271840769     -2.40486743710702     -0.39212030687909
  C   3.14090052187138     -3.51678147568242     -0.88188025603106
  H   3.79611488517432     -4.37429191032286     -1.08212862490981
  H   2.38071630374670     -3.82407138007235     -0.14918477447351
  H   2.61335141119781     -3.24316149290782     -1.80928520542236
  C   7.07201118398716     -1.00322646257833      0.62824553980726
  C   7.35291854064935      0.34544588185822      0.85774140812665
  N   8.64762680722514      0.74620352429387      1.29225658674402
  N   8.84076898797575      1.98241952808693      1.81398931481692
  C   10.13751614054882      2.03571548770817      2.10483507064392
  C   10.80365876343506      0.82980250248598      1.77209841540086
  C   9.81128236176298      0.02469853080225      1.24847288805108
  H   9.84844059723786     -0.97877809851658      0.83727602962344
  H   11.85550620779287      0.58375350221247      1.88877966081118
  H   10.54895950769719      2.94165404739732      2.54738817521373
  C   6.38000486048095      1.33956275461638      0.65773255792777
  C   5.07222114149595      1.04545441399237      0.23525125902243
  N   4.11382325387186      2.04727841171168      0.12796017968339
  H   3.50618185132017      1.93278919291785     -0.68519180010328
  H   4.51257916166572      2.98150126132433      0.17092663712958
  H   6.66225741609737      2.37450131954822      0.84992967563534
  H   7.78585413787840     -1.80466432649156      0.80924101045191
  C   1.17275669545150     -1.11751701357005     -0.24372684252546
  C   -0.00012038420931     -0.57336765275087     -0.80308159689154
  C   -1.17330923747129     -1.11747088586880     -0.24426465849169
  C   -0.69512641703467     -2.03416562044245      0.76795515562537
  C   0.69405817602953     -2.03424297223877      0.76822253780774
  H   1.31875850277636     -2.60105744125851      1.45487630489663
  H   -1.32019307772505     -2.60093227468487      1.45431343859765
  H   -3.50623146322617      1.93272817245445     -0.68691438123465
  N   -4.11363718318909      2.04729726485426      0.12640149199644
  C   -5.07222333057295      1.04567802441251      0.23398125635817
  C   -6.37991458651868      1.33996341533837      0.65663152276432
  C   -7.35275325785645      0.34586561852841      0.85697386354974
  N   -8.64739502591903      0.74663575505118      1.29155765305482
  N   -8.83865219840106      1.97922766571777      1.82243182065933
  C   -10.13610650714031      2.03360406323832      2.11012030191796
  C   -10.80446153714551      0.83207810510857      1.76615599749305
  C   -9.81275548127462      0.02853669105890      1.23879594707240
  H   -9.85112800815062     -0.97137076230196      0.81903206784560
  H   -11.85728647233067      0.58795228695144      1.87797705166492
  H   -10.54641403608900      2.93706009299405      2.55876548421327
  C   -7.07212582173780     -1.00285771113882      0.62764629457304
  H   -7.78616983393552     -1.80391356414247      0.80967821075178
  H   -6.66200545557604      2.37493526236567      0.84899210410339
  H   -4.51211637199363      2.98162337364822      0.16960078920931
  N   0.00010581789386      0.47287559640826     -1.65204829637530
  H   0.00068076819532      3.47839176212339     -3.78332578392787
  H   -3.79677082576333     -4.37410828391018     -1.08410370791542
  H   -2.38084855062072     -3.82363363157570     -0.15207607258304
  H   -2.61474535934066     -3.24271505774962     -1.81201359404194
