23
Coordinates from ORCA-job ./opt_b3lyp_cdz
  C   2.18960000181668      3.72917451989846      0.09476450063868
  C   1.42562926796270      2.43092694057412      0.09710479168436
  C   2.09079886647583      1.20807118080467      0.01561021324701
  C   1.39282655757659     -0.01310349543927      0.05046071282305
  C   2.02099087253915     -1.27876746586961     -0.02775300054963
  C   1.23792332789601     -2.41375929429161      0.01513926632361
  N   -0.09598673737918     -2.41540483688500      0.12621667011149
  C   -0.73467518034782     -1.24077736729758      0.20228038311329
  N   -2.06835986576891     -1.25020017673587      0.31195996603340
  C   -2.71367787343816     -0.07890884192038      0.38734645786354
  C   -2.10280387174377      1.15690328100827      0.36081017826298
  C   -0.69273165913804      1.21992453207886      0.24707858287285
  C   0.03433862346174      2.42239815126547      0.20948454540982
  N   -0.00503070455272     -0.00072028915031      0.16722325879689
  H   2.38529371684451      4.05877796029699      1.13042279495275
  H   3.16177230733572      3.62578670100918     -0.40968383586365
  H   1.61939092271095      4.52960850743745     -0.40108087193300
  H   3.17617138665852      1.16159246972433     -0.07850471913746
  H   3.10546465168929     -1.32394292373230     -0.11888795737779
  H   1.70595730553228     -3.40351048603554     -0.04340673002708
  H   -3.80427655406802     -0.14818416790043      0.47559785507047
  H   -2.66779291458462      2.08595789872077      0.42504089400168
  H   -0.53205244747876      3.35222720243934      0.27109604368275
