84
Coordinates from ORCA-job ./opt_b3lyp_cdz
  C   -4.80801067541342     -3.16227181958399      1.78472241433927
  N   -5.24586812404347     -3.33992148361071      0.40926455827443
  C   -5.75585861353701     -4.47427624322893     -0.16039459341407
  N   -6.04041629888434     -4.31728457404504     -1.43954976650260
  C   -5.68313203506006     -3.02258390224179     -1.72959989039041
  C   -5.18986880871122     -2.38913058294677     -0.60550766046502
  N   -4.68722118096972     -1.09806556656939     -0.39688017873480
  C   -5.47869889381312      0.02984577904674     -0.23825031843924
  C   -6.88259483241160     -0.03897429976434     -0.33290354289858
  C   -7.70816336579949      1.09430340008234     -0.26104844250786
  N   -9.11368251019440      0.93200400674652     -0.37902841450744
  C   -9.79434285826534      0.01362077746914     -1.16827323797198
  C   -11.12818021514904      0.23840942557533     -0.92935303421507
  N   -11.29847929564046      1.25567197016001     -0.01109192097270
  C   -10.08238034053823      1.64829141955463      0.29406619676105
  H   -9.82227108822629      2.41950061028797      1.01585994126911
  H   -11.97909572981282     -0.27468786567240     -1.37320003043706
  H   -9.27302589857366     -0.66737768832991     -1.83333321811148
  C   -7.17127368122431      2.37151363496694     -0.07747113882512
  C   -5.78516991956421      2.45469674190664      0.05637994442665
  N   -5.04204731919167      3.62791729974356      0.21314764379426
  C   -3.80684052951552      3.25173243720320      0.22777705627348
  N   -3.62370917489591      1.85921752475090      0.10068314384793
  C   -4.93972560909101      1.32101337482108     -0.00085212028052
  C   -2.38011413743257      1.26790961729852      0.26098469494294
  N   -2.36390637778889      0.00626551382643      0.74245453244297
  C   -1.22444001067254     -0.64535077493704      0.99055385407476
  N   -1.20827235445973     -1.91305564600905      1.42552459241426
  C   -0.00037573034366     -2.45756302228663      1.61783603604612
  N   1.20754463025071     -1.91306987970151      1.42562384757525
  C   1.22376913786434     -0.64536791200786      0.99065654075881
  N   2.36327704478512      0.00622105465251      0.74265235480668
  C   2.37954888127781      1.26786208322337      0.26117747384161
  N   3.62316268573255      1.85919308572111      0.10102537915138
  C   3.80622331804786      3.25170232287747      0.22822784084088
  N   5.04142095041832      3.62793058401772      0.21385229724439
  C   5.78460972117986      2.45475025774288      0.05710776391617
  C   4.93921045320210      1.32104104614613     -0.00042712628778
  C   5.47828270914597      0.02992678396225     -0.23792918703933
  N   4.68691300705881     -1.09800632645487     -0.39702636108502
  C   5.18974130897094     -2.38900694917330     -0.60569338361101
  N   5.24566461392969     -3.33990755861634      0.40898505699315
  C   5.75587634592863     -4.47414520657854     -0.16070641573376
  N   6.04064747838209     -4.31698287120475     -1.43979299767003
  C   5.68328789560341     -3.02228462135004     -1.72976027452728
  H   5.79675243359028     -2.60055904836868     -2.72680514274054
  H   5.88921136332566     -5.39119102457351      0.41197664302234
  C   4.80750170727344     -3.16247545278878      1.78437383976677
  H   5.35830734644004     -2.33756460999383      2.26301424816347
  H   3.72881397893567     -2.94374867456530      1.83073682033104
  C   1.17323434755418      1.96062834636118     -0.03591408995793
  C   -0.00029542082629      1.25841587485026      0.30057515103623
  C   -1.17377228225894      1.96065023624733     -0.03599379185965
  C   -0.69517869057141      3.17584041666153     -0.65692957970676
  C   0.69470613605615      3.17581667606962     -0.65690543286251
  H   1.30934065262947      3.95866493068982     -1.09492615649902
  H   -1.30976325238134      3.95870486590777     -1.09498795605168
  N   -0.00032579441036      0.00042061813886      0.79500139890112
  H   5.01097218916662     -4.08891536177384      2.33837316584637
  H   3.75697432452989     -1.01263450561412      0.01777914124975
  C   6.88220620519855     -0.03882459062146     -0.33225215964764
  C   7.70772075880544      1.09446956389256     -0.26006854827322
  N   9.11327139062429      0.93223007658811     -0.37775923159019
  C   10.08179701370690      1.64847373647431      0.29562915828724
  N   11.29797648968933      1.25593133204519     -0.00930785141053
  C   11.12791322822988      0.23876737152767     -0.92772201768763
  C   9.79413579200991      0.01396084525898     -1.16696049916923
  H   9.27298804274372     -0.66697904718304     -1.83221317771876
  H   11.97894357105224     -0.27425030003123     -1.37144084360354
  H   9.82150374339480      2.41959215690763      1.01745353787965
  C   7.17074486486757      2.37163634395600     -0.07646471585277
  H   7.77980310496815      3.27397650713045     -0.07779635681340
  H   7.33415998874962     -1.02160989606932     -0.46025530160404
  H   2.95258874001149      3.90371866629935      0.39077598011512
  H   -0.00039956336397     -3.49243505989312      1.97459634095753
  H   -2.95325393150530      3.90379705213912      0.39039581277271
  H   -7.78036835841659      3.27382877770042     -0.07903285940048
  H   -7.33448088017466     -1.02179841108490     -0.46085282301972
  H   -3.75740112612777     -1.01252388523190      0.01815652955199
  H   -5.79645575352849     -2.60098330959335     -2.72671326072763
  H   -5.88919781155708     -5.39127353592603      0.41236444906124
  H   -5.01162417077362     -4.08861658034358      2.33882833053158
  H   -3.72933163127553     -2.94354818944865      1.83129719264665
  H   -5.35891376866077     -2.33727492670913      2.26310018187167
