98
Coordinates from ORCA-job ./opt_b3lyp_cdz
  C   5.92868883058197      3.22106723102426     -1.14255994825414
  H   5.32980752181869      3.02232380584437     -2.04582850533017
  H   6.16482885582532      4.29813471910667     -1.11831303554668
  H   6.87535639067700      2.67079487161977     -1.24151324517712
  C   5.13870921749815      2.81381441206196      0.12150089598849
  N   4.73246881362852      1.39197437178021      0.10295359051781
  C   5.52768940462184      0.26432260517989      0.04498052641201
  C   6.93531641872820      0.28727867340303      0.14374906304004
  C   7.75473175986393     -0.87172558174564      0.17963096314834
  N   9.12534335568063     -0.74630835269432      0.28278113028444
  C   9.83948361566556      0.52532492969654      0.23343516788637
  C   11.30946410585400      0.11109065791165      0.07198319006331
  C   11.37079817657123     -1.24395339820431      0.79223255303240
  C   10.02349990412864     -1.88771261331512      0.43669838109103
  H   10.08986382976664     -2.47911264374329     -0.49945547506263
  H   9.66752991193221     -2.57107274648396      1.22657635771079
  H   11.43607015355592     -1.09004912314983      1.88287914622178
  H   12.22765789486689     -1.86310003807581      0.48758810396651
  H   11.54563492666790     -0.01843498666036     -0.99794805653683
  H   12.00534539141385      0.85785059829969      0.48254820237051
  H   9.68600065937802      1.11499278369404      1.16105706013995
  H   9.49134368366423      1.14866246211158     -0.60850104144967
  C   7.15316913936827     -2.14483598505340      0.11618919194425
  C   5.76615480399492     -2.18916118682468      0.00341525680150
  N   4.99180783123448     -3.35576153194707     -0.02713343093190
  C   3.76646685205417     -2.95100621969502     -0.07342219387319
  N   3.61859410248419     -1.54915174129385     -0.09663298334412
  C   4.95093881523225     -1.03665924275520     -0.06480690904185
  C   2.38264841378226     -0.97010199299820     -0.32700903971927
  N   2.36705313379026      0.21424125419721     -0.97845633492039
  C   1.22693566389935      0.82336059539367     -1.31446719723452
  N   1.20922417097680      2.01908322543137     -1.92276081182651
  C   0.00014440988431      2.52747973474285     -2.18827908276141
  N   -1.20904481964456      2.01930333016519     -1.92258139909508
  C   -1.22713387007841      0.82355670539413     -1.31421871497367
  N   -2.36734721276500      0.21472378715908     -0.97809230286549
  C   -2.38301019088141     -0.96961859046655     -0.32660603536401
  N   -3.61902387373943     -1.54850873470621     -0.09607032423159
  C   -4.95121215515046     -1.03571674711244     -0.06331730847826
  C   -5.76667843539867     -2.18805254276370      0.00474264665840
  N   -4.99262675466449     -3.35481570748837     -0.02662320622681
  C   -3.76720244784266     -2.95032372223943     -0.07328429503983
  H   -2.89548570898372     -3.59235335155651     -0.16410787093768
  C   -7.15364068662338     -2.14338668121688      0.11812802447153
  C   -7.75483596920024     -0.87015161563025      0.18234965418967
  C   -6.93514238036467      0.28867090587831      0.14652487182708
  C   -5.52756318514573      0.26536896417465      0.04725033866472
  N   -4.73190543546520      1.39273566555589      0.10535932967108
  H   -3.83332635372881      1.24412248990666     -0.35672714207871
  C   -5.13753537894853      2.81470063599450      0.12530377775978
  C   -3.81431799594220      3.60533964366525      0.14807135294823
  H   -3.19970702926751      3.37880958007826     -0.73812799908480
  H   -3.22968932125082      3.35246653268116      1.04766763390393
  H   -4.01619950710886      4.68773849208535      0.16073936564940
  C   -5.91436890586712      3.16213040532098      1.41172003802066
  H   -6.06000570981231      4.25293111679072      1.47394840931717
  H   -6.90638291316082      2.69307593516946      1.46216086362589
  H   -5.34480278890523      2.83828580048828      2.29708159257931
  C   -5.92773844070930      3.22340153632249     -1.13814916986017
  H   -6.87471802290171      2.67370485526226     -1.23726343979594
  H   -5.32927553661722      3.02513941188861     -2.04180023987136
  H   -6.16331850121253      4.30057251551554     -1.11288698042251
  H   -7.42115303399627      1.25402402544372      0.21714362479935
  N   -9.12537371296630     -0.74440657372486      0.28616364996898
  C   -10.02376469552038     -1.88560020935758      0.44026020430142
  H   -9.66742266488915     -2.56940093252406      1.22958901419778
  H   -10.09100716219075     -2.47659052602873     -0.49608979069878
  C   -11.37060485796580     -1.24158237148524      0.79706594424575
  C   -11.30938292673016      0.11376569333026      0.07737929198705
  H   -12.00471959310645      0.86055890389999      0.48880582703058
  H   -11.54640304298951     -0.01519571624258     -0.99243228101552
  C   -9.83915439769853      0.52746965097572      0.23791941324579
  H   -9.49146259550765      1.15107914552715     -0.60400161573856
  H   -9.68478470786754      1.11667760244053      1.16568698225086
  H   -11.43502251111704     -1.08814292987978      1.88782859294897
  H   -12.22788196163365     -1.86032579874709      0.49277686008210
  H   -7.71584275424672     -3.07350602155506      0.15785174316153
  C   -1.17324296564865     -1.60767145237927      0.07226078690400
  C   -0.00016863492479     -0.96291621272616     -0.36225671751421
  C   1.17280589975596     -1.60792344095564      0.07208619114999
  C   0.69551106697481     -2.71846040061845      0.86400800374883
  C   -0.69608989879046     -2.71830630324662      0.86412248483598
  H   -1.31325998691362     -3.42862611481186      1.40942786916334
  H   1.31258427404684     -3.42892860213572      1.40923186964166
  N   -0.00013027523012      0.21231545959724     -1.03306136418154
  H   0.00015655731387      3.50250288652750     -2.68719104219046
  H   2.89456512522795     -3.59288214887265     -0.16354973425540
  H   7.71511801305680     -3.07510073177869      0.15606913708746
  H   7.42160189306606      1.25253718604161      0.21385931894053
  H   3.83358431249215      1.24340695613215     -0.35853964612905
  C   3.81583462881669      3.60503261154887      0.14404289822003
  H   3.20088447592777      3.37813183531812     -0.74182450458736
  H   3.23135461081718      3.35308072565025      1.04399389234186
  H   4.01820642307134      4.68735034205742      0.15586992240447
  C   5.91612372400672      3.16201650015607      1.40736018374213
  H   5.34673101969562      2.83912345693833      2.29318029928205
  H   6.90799450384455      2.69265333336692      1.45788240927781
  H   6.06218984741763      4.25281521454619      1.46862669252707
