88
Coordinates from ORCA-job ./opt_b3lyp_cdz
  C   -3.89474792699996     -2.41944104593514      1.13153409497778
  H   -3.13867786138522     -2.10649220428002      1.87054325963197
  H   -3.39606035724962     -2.58640355166440      0.16424968517117
  H   -4.33313378141330     -3.37397389473850      1.45900527761922
  C   -5.00308296100349     -1.34856603046062      0.99250039539225
  N   -4.31384842810144     -0.13266523417482      0.50290303874288
  C   -4.90897725865069      1.10558765926129      0.31312904208163
  C   -6.30765749229551      1.28142497279202      0.19428241560372
  C   -6.90719217226688      2.51518496039448     -0.09025923583656
  C   -6.15211676073375      3.66814804643594     -0.28289184947740
  C   -4.76657648936100      3.53273183383418     -0.17062039440596
  N   -3.81784897401772      4.54000252392793     -0.36732369584961
  C   -2.67204231854906      3.96390724897548     -0.22075708208829
  N   -2.74980542721165      2.59074447914689      0.09080994392507
  C   -4.14626035050723      2.29674464854765      0.14151114883272
  C   -1.61395015495138      1.87408430430553      0.43949583718679
  N   -1.76648938351254      0.86942728749168      1.32704902804733
  C   -0.72651508533562      0.16346165828510      1.78338374650079
  N   -0.87716028835150     -0.86302859876568      2.63077671240212
  C   0.24461163722042     -1.49395466889541      3.00136616158396
  N   1.50870778424336     -1.25249228907765      2.63521980280662
  C   1.69420110994684     -0.23140783004000      1.78739269639705
  N   2.90484208393191      0.10316634758985      1.33019585000648
  C   3.07916297420339      1.08451503562140      0.42657773044225
  N   4.38480692779733      1.37284241390665      0.04067300930027
  C   5.58679307801479      0.60465507101271      0.00082968326962
  C   6.56940858254511      1.53946215517219     -0.42331560185443
  N   6.02019669273429      2.81116184339124     -0.59858045915486
  C   4.76344328128500      2.67614489268320     -0.33011451939454
  H   4.03449355856737      3.48175082153297     -0.31247190835189
  C   7.89625198817398      1.17152753211719     -0.65622315577664
  C   8.23231310583225     -0.16156080809045     -0.43472771377739
  C   7.27346293030583     -1.08406792160339      0.00235196681926
  C   5.91413435458481     -0.76216492235483      0.21025219532890
  N   5.02947273053563     -1.74124526223247      0.68907407782786
  H   4.23215949287176     -1.29237447500038      1.14235418993725
  C   4.52821978319218     -2.89969051905205     -0.11701237743778
  C   3.52043417873553     -2.40916386734459     -1.18489375103222
  C   2.14152666555980     -2.66682892093121     -1.09951458672451
  C   1.24809111075900     -2.17824597073890     -2.06106237424202
  C   1.71235332903422     -1.41560312146427     -3.13441702319492
  C   3.08187518713106     -1.14991678681183     -3.23674632194469
  C   3.97020228512594     -1.64152950568570     -2.27745507596410
  H   5.03298384497973     -1.41709916557714     -2.38307025684098
  H   3.46451894073815     -0.55856432747050     -4.07267794754176
  H   1.01669519920268     -1.03537722157933     -3.88623701074969
  H   0.18221483990557     -2.40452741302786     -1.96989223341028
  H   1.74590889487729     -3.26236206988612     -0.27626815351735
  C   5.66406456182316     -3.67898988829685     -0.80106079915170
  H   5.23579789265609     -4.54492108123230     -1.33000146545117
  H   6.21482077454012     -3.07850088553234     -1.53740434615641
  H   6.38054904600971     -4.05154874502790     -0.05254245588006
  C   3.87613070926919     -3.83272573193339      0.91931855923562
  H   3.09624368114616     -3.31737704045207      1.50088634406174
  H   3.43200049841163     -4.71851310169804      0.43918125090487
  H   4.64750684778201     -4.16695979500453      1.62806481097999
  H   7.58283179875261     -2.10228585847569      0.23285581492907
  H   9.26202444712797     -0.49701363741216     -0.57821758664010
  H   8.61791520282712      1.91692202835997     -0.99168570838616
  C   1.97960955289614      1.82240200929943     -0.09051799398217
  C   0.73422208984769      1.48561261754745      0.47439125181273
  N   0.57121651065395      0.49477813437695      1.37649802812484
  C   -0.33495327339264      2.20943328531042     -0.08556127714450
  C   0.28618777893228      3.03593980648033     -1.09654200308301
  C   1.65704378208975      2.80567513480806     -1.10051249030281
  H   2.35882880627030      3.27382587809544     -1.78650622759830
  H   -0.22840428383842      3.70965170406162     -1.77782856087552
  H   0.10672216296801     -2.32973043760156      3.69525157015417
  H   -1.70709170449137      4.46222722162718     -0.25358027041310
  H   -6.59230936192346      4.63529605777913     -0.52542797705475
  H   -7.99598930447494      2.55627019072070     -0.17076267084887
  H   -6.94960955486792      0.41071473459712      0.30320846023215
  H   -3.38086498546790     -0.04049711529136      0.90820149799946
  C   -5.62025581848058     -1.11408270539359      2.38943712954863
  H   -4.84402142946415     -0.70963961667162      3.05717109585479
  H   -6.45563773788172     -0.40007953724620      2.36705046500043
  H   -5.98213783823131     -2.05402853233749      2.83339589404024
  C   -6.01012732435182     -1.86780879442776     -0.05215708818994
  C   -7.20216210713434     -2.51123395199046      0.31479862477606
  C   -8.06377602661465     -3.03918533897259     -0.65424367639788
  C   -7.74968236455435     -2.93404810463242     -2.01051207205566
  C   -6.56407097269717     -2.29521668385436     -2.38920347072772
  C   -5.70636081612564     -1.77012674468096     -1.42105031812394
  H   -4.78884800424702     -1.26123620754912     -1.72229531880735
  H   -6.30698474238861     -2.20074145424501     -3.44747144815138
  H   -8.42352031520935     -3.34313456916958     -2.76718040677703
  H   -8.98717038831995     -3.53344811711985     -0.34151220910871
  H   -7.47531192527815     -2.60666006369486      1.36667593112415
