86
Coordinates from ORCA-job ./opt_b3lyp_cdz
  C   -4.79766366739206     -3.15337218077342      1.77238362169910
  N   -5.24551113073529     -3.33676778539612      0.40103471067257
  C   -5.75948300518091     -4.47350188413252     -0.16033024294088
  N   -6.05432506614284     -4.32126721319690     -1.43771283193102
  C   -5.69985640966356     -3.02721500857756     -1.73507214612326
  C   -5.19778144839308     -2.38931759821883     -0.61733577706590
  N   -4.69333489036789     -1.09803954434134     -0.41683527883511
  C   -5.48350085781829      0.03207439721994     -0.25749399544559
  C   -6.88749422078079     -0.03551006445781     -0.34443886261437
  C   -7.71557369200631      1.09772427162618     -0.27371095296079
  N   -9.11823671774861      0.93715024018296     -0.39120447564457
  C   -10.07360362146410      1.72038758746297      0.23981612014531
  C   -11.32049198549619      1.25900147698822     -0.12077161592419
  C   -11.12646375439085      0.15703212657989     -1.01060181210504
  C   -9.76811956227904     -0.02096301544956     -1.15555605551410
  H   -9.20555750545496     -0.71707831893045     -1.76993921780430
  H   -11.89726358713434     -0.43429850838789     -1.49981569963155
  H   -12.26934614743091      1.66244297851742      0.22585837120083
  H   -9.77787239491966      2.50828070365643      0.92559446664606
  C   -7.17108096062885      2.37374975716405     -0.09281457543598
  C   -5.78501777744605      2.45551724400506      0.03407485810524
  N   -5.03958159724040      3.62907520235531      0.18495367171370
  C   -3.80467545454904      3.25218639743650      0.19447075559875
  N   -3.62278975937454      1.85879399226724      0.07007395569663
  C   -4.94009892682801      1.32169415887274     -0.02472605574555
  C   -2.38024507319443      1.26762662053064      0.22998854154063
  N   -2.36384521485299      0.00582485053036      0.71285601468439
  C   -1.22475118971704     -0.64532764046417      0.96168660879395
  N   -0.00017984458839     -0.00066870110660      0.76544952254940
  C   0.00028833166037      1.25701302588438      0.26905009735552
  C   1.17404340155016      1.95812714208921     -0.06837298273261
  C   0.69609569412616      3.17238205368003     -0.69120809207624
  C   -0.69403219213792      3.17288904658083     -0.69126623921232
  C   -1.17292949047715      1.95898165786296     -0.06846407378168
  H   -1.30847551294739      3.95504776583844     -1.13077814141891
  H   1.31115343081652      3.95409618123383     -1.13065437574657
  C   2.38081842590892      1.26590971715877      0.23022105615731
  N   3.62381615787913      1.85615858759355      0.07041220903149
  C   4.94070106867890      1.31800298609718     -0.02398724925367
  C   5.78652427530047      2.45112367238832      0.03519626092429
  N   5.04199540452301      3.62527840227889      0.18593305907226
  C   3.80677701543195      3.24938820104717      0.19500976281217
  H   2.95236317877978      3.90162962343614      0.35232843661873
  C   7.17256684044402      2.36820311290580     -0.09122491029792
  C   7.71605258180679      1.09174793773763     -0.27205025515476
  N   9.11862351138976      0.93001326963790     -0.38907282872121
  C   10.07442531053486      1.71236553520792      0.24238694359406
  C   11.32105303690533      1.24998003521697     -0.11782132140085
  C   11.12641385052414      0.14829205714506     -1.00786565669470
  C   9.76797194289266     -0.02854511759783     -1.15332098670829
  H   9.20504141991098     -0.72410347489930     -1.76799731906729
  H   11.89688980393927     -0.44361968114900     -1.49688675279840
  H   12.27012318331287      1.65257865521346      0.22919702501722
  H   9.77911201338011      2.50041812191907      0.92816247661463
  C   6.88704743252371     -0.04079710855646     -0.34320143251007
  C   5.48309202060075      0.02795925383627     -0.25675582626813
  N   4.69201274352646     -1.10149515237624     -0.41673127169125
  C   5.19574547708465     -2.39327487158902     -0.61606802531651
  N   5.24364822810227     -3.33969197848231      0.40327479979336
  C   5.75681732696156     -4.47721800223449     -0.15718806624325
  N   6.05103320499785     -4.32643950243594     -1.43489234767611
  C   5.69691113805315     -3.03255812798065     -1.73340736875899
  H   5.81855307093245     -2.61531706019764     -2.73134179054514
  H   5.88467280126856     -5.39169906905640      0.42086578989392
  C   4.79628292693277     -3.15475481506286      1.77458105550447
  H   3.71678703411405     -2.93845687920322      1.81300035197510
  N   2.36349802279035      0.00411771129299      0.71306767943309
  C   1.22390647255353     -0.64621293939396      0.96180268009795
  N   1.20711652990879     -1.91356747075994      1.39920668878771
  C   -0.00109981325102     -2.45686441464786      1.59216013088735
  N   -1.20890523059834     -1.91270157972824      1.39908034021215
  H   -0.00149039072997     -3.49117838409422      1.95074876061766
  H   5.34190178533166     -2.32507397000921      2.25091839256239
  H   4.99899332582032     -4.07705899509246      2.33582719410717
  H   3.76154324324792     -1.01550461728724     -0.00315656979167
  H   7.33742288290343     -1.02516673990410     -0.46214870368918
  H   7.77925589530489      3.27190901708659     -0.09118377799537
  H   -2.94979403904383      3.90375165207578      0.35203546321192
  H   -7.77700358567485      3.27797067007312     -0.09307704496979
  H   -7.33865245141308     -1.01952154850437     -0.46338770380369
  H   -3.76282127386809     -1.01274598799970     -0.00322209473091
  H   -5.82186475539630     -2.60888885564105     -2.73250731282607
  H   -5.88734646412952     -5.38854419321333      0.41683026021882
  H   -5.34320394184990     -2.32432147086951      2.24991853778654
  H   -5.00003420184260     -4.07636756286217      2.33261575420994
  H   -3.71817647406685     -2.93698899204827      1.81066602136196
