92
Coordinates from ORCA-job ./opt_b3lyp_cdz
  C   2.76776169463779      2.08894963277031     -3.06712066772655
  N   3.46365622241896      0.82933763611188     -3.26244901629874
  C   3.82222139773904     -0.09502584852623     -2.31965378973685
  C   4.29481626973617     -1.20926734335862     -3.01267646300422
  C   4.16643379313135     -0.84728705031217     -4.37299381520807
  N   3.65279237217623      0.36977212367339     -4.52788293927208
  H   4.43363740669856     -1.43244225553001     -5.25189914945029
  H   4.66057082136497     -2.14031352112152     -2.59215671774998
  N   3.62384476621528      0.13542553714713     -0.95715772550252
  C   4.46099098538493     -0.35180336139672      0.05935006052724
  C   5.75009373877603     -0.85027602459609     -0.18491298262174
  C   6.55306428335675     -1.39812466321209      0.83597375688543
  N   7.83984629214189     -1.89732147137404      0.50600932646904
  C   8.18794906509191     -2.53459269674452     -0.67485973651416
  C   9.52119689400481     -2.87761962671680     -0.60693131658277
  C   10.01227829652159     -2.43020903039503      0.65820393235702
  C   8.95966712419625     -1.83602016047487      1.32054445099330
  H   8.91635420258466     -1.33352851832575      2.28200523357446
  H   11.02798146863634     -2.52151527373687      1.03671668626427
  H   10.08023587157357     -3.40083912996825     -1.37956809781845
  H   7.44530384941054     -2.72266054078422     -1.44407723337781
  C   6.10305085796102     -1.45083630189160      2.15777149055108
  C   4.84163420554325     -0.91110876825083      2.42421240595140
  N   4.17261556756410     -0.88249116382127      3.64329427303865
  C   2.99796121387842     -0.37061544732291      3.40747865545731
  N   2.81810218476252     -0.03952194146111      2.04065418373562
  C   4.03527934103587     -0.36226511319989      1.40495487454184
  C   1.75757192734035      0.72926232760661      1.53740201858823
  N   2.10127229047419      1.85107253254833      0.86808739535486
  C   1.17124447239383      2.71107895630961      0.42446266579990
  N   1.48758554041086      3.85270209096835     -0.19544145482173
  C   0.46052648216203      4.64303917020090     -0.54148935525191
  N   -0.85284755899889      4.43866533067299     -0.39205074187936
  C   -1.21090551553743      3.27816844238394      0.16953061628679
  N   -2.48789211782755      2.89619622574796      0.28382319870852
  C   -2.80916620664708      1.69332866017543      0.78180987831207
  N   -4.18125070735414      1.37372838097193      0.75879403924512
  C   -4.78795552414779      0.15758901316418      0.39044299017177
  C   -6.13310545773151      0.29273308049397      0.81366123501146
  N   -6.33851237565695      1.53242978905157      1.40450144694888
  C   -5.19399633648658      2.15764256017350      1.35067283229076
  C   -4.95913129145632      3.52629989514103      1.89616707219720
  H   -4.16969846147823      3.52565049872304      2.66594228488789
  H   -5.89732475696362      3.87201916945217      2.34799904183831
  H   -4.64024335447801      4.22127005094795      1.10615328805701
  C   -7.07306780013827     -0.72773930474131      0.63980310307902
  C   -6.65499705434347     -1.88354536314024     -0.02123764879756
  N   -7.55714493586775     -2.95742777956341     -0.23145742621485
  C   -8.90948863031446     -2.83491614174242     -0.50869796000681
  C   -9.44150463287125     -4.09958001467530     -0.64150282842177
  C   -8.38030945257184     -5.03312961530530     -0.43235968653420
  C   -7.23563361247280     -4.30541387884835     -0.18652509753337
  H   -6.22952390461988     -4.62593477674990      0.06710592620325
  H   -8.44971064196905     -6.11854377722445     -0.44850264602259
  H   -10.47879008587177     -4.32850541531918     -0.87544787372408
  H   -9.36202112091941     -1.85543685902083     -0.63071711327558
  C   -5.34408131359157     -1.97989098733929     -0.53139451061954
  C   -4.38359163248326     -0.97333437093403     -0.35476026282354
  N   -3.09344338621433     -1.15889810520020     -0.90107241849005
  C   -2.51532369898825     -0.19689593569903     -1.74597752871408
  N   -1.16254163789229     -0.18468025825330     -1.96569003093986
  N   -0.79214540797031      0.84356556721272     -2.77134642746093
  C   -1.92265246767299      1.50118537972292     -3.03105499078674
  C   -3.04538728175051      0.89328525755569     -2.42543727272262
  H   -4.08458629371426      1.20472310123552     -2.45739951203814
  H   -1.89253436190691      2.39849394168032     -3.64685137171475
  C   -0.19865025052791     -1.20923476436783     -1.60715563438374
  H   -0.10703649271587     -1.96923274740420     -2.40167728080145
  H   -0.51339044568339     -1.68731811286266     -0.66954799663846
  H   0.78300304369717     -0.73959034471861     -1.46332457663838
  H   -2.95033063041328     -2.11494329223407     -1.21827659101840
  H   -5.08016346651406     -2.84901345891873     -1.13716821852387
  H   -8.08484958205491     -0.61275416786704      1.02672440862446
  C   -1.85050144537241      0.81030365675429      1.32481704692690
  C   -0.52481866452512      1.26473369975187      1.20768277362462
  C   0.41150864867914      0.35004519129161      1.72787660800621
  C   -0.39545290634472     -0.75316397578143      2.20952718701237
  C   -1.73683265897250     -0.47845552821469      1.97252274827168
  H   -2.56915350062947     -1.13335019901357      2.21948462234947
  H   -0.01352344546021     -1.66451316478263      2.66467808035790
  N   -0.18797539119476      2.42471486710801      0.61784607723962
  H   0.73830680765477      5.58807708163963     -1.01994720516586
  C   2.00771014398314     -0.05714227670407      4.48211090286851
  H   1.66782258623932      0.98972237702715      4.43057763614562
  H   1.11326423326307     -0.69601141024877      4.43943288179061
  H   2.50988091379404     -0.22233202149080      5.44380353371190
  H   6.67937225597490     -1.92451134921043      2.95121559053220
  H   6.14948806978483     -0.78311426926139     -1.19521007834781
  H   3.13498151395090      0.99244620769387     -0.70207443748881
  H   2.94361163735045      2.69636174318455     -3.96369959111066
  H   1.68273988533733      1.92425239706103     -2.94983145648853
  H   3.16268889979753      2.62336025354578     -2.18983566003649
