84
Coordinates from ORCA-job ./opt_b3lyp_cdz
  C   4.59231545094044      3.44099157305034      1.71735074061820
  N   5.10078854857503      3.45220514969588      0.35564032068932
  N   5.55078197501133      4.60261989227105     -0.19208090800699
  C   5.95586286216889      4.26448407436385     -1.41786810468836
  C   5.75063759906650      2.89311436631613     -1.68573961497536
  C   5.19092258537614      2.39680352370468     -0.51193522411287
  N   4.72508932061081      1.12465564712259     -0.16660308235477
  C   5.49199882567871     -0.02674648125861     -0.14394748006507
  C   6.88800360217307      0.01673762438111     -0.33415454440615
  C   7.69129656263849     -1.13451777640174     -0.35365812631557
  N   9.08627518595524     -0.99363661043063     -0.57720002755616
  C   10.10292167432030     -1.75899210850345     -0.02067781562271
  C   11.26961561476367     -1.26851355869277     -0.55436024243294
  N   11.01130961871609     -0.23344893585951     -1.43097618698582
  C   9.70500873459836     -0.09294993286267     -1.42026409543057
  H   9.13470538898394      0.61561358187015     -2.01692556642018
  H   12.28599388835886     -1.60023583761044     -0.35108570771356
  H   9.89883750518159     -2.53256760097206      0.71262238834811
  C   7.14250214900779     -2.40357336363013     -0.15475205526128
  C   5.76655494694575     -2.46378274135105      0.06711062879397
  N   5.01549521122674     -3.62680549028968      0.25391350854317
  C   3.78979511661124     -3.23095725728331      0.34544188203218
  N   3.62150640634120     -1.83497221986043      0.24589303636657
  C   4.93914613190034     -1.31498530835165      0.07962514638129
  C   2.38081705845463     -1.23749515194050      0.41365185026166
  N   2.36498521707952      0.02504894432715      0.89123461758036
  C   1.22450564627874      0.67845164684481      1.13468901702217
  N   1.20753381122666      1.94909160677807      1.55833381029203
  C   0.00039890585359      2.49657525874404      1.74565509741216
  N   -1.20690465569914      1.94946678755220      1.55832579856177
  C   -1.22426865499245      0.67883383393255      1.13467661732765
  N   -2.36494854469333      0.02578479052789      0.89121306070975
  C   -2.38116917427158     -1.23675257516339      0.41362521235729
  N   -3.62204298847305     -1.83384693912772      0.24586499220485
  C   -4.93952060223972     -1.31345824733870      0.07956148952636
  C   -5.76728299971571     -2.46200224148171      0.06707300379073
  N   -5.01658306500214     -3.62525099321746      0.25391325082918
  C   -3.79076290382259     -3.22977730367274      0.34544544150037
  H   -2.93774580928231     -3.87056891039910      0.54971836531091
  C   -7.14321178615630     -2.40137567003389     -0.15479024369301
  C   -7.69161917174783     -1.13215668835862     -0.35372359292459
  C   -6.88797137136080      0.01885210879588     -0.33425036759737
  C   -5.49198012847776     -0.02505690054026     -0.14404943721499
  N   -4.72472102458460      1.12610903953543     -0.16677069713697
  C   -5.19016710511733      2.39838436677680     -0.51215250179837
  N   -5.09970391515330      3.45378730880213      0.35538739776462
  N   -5.54932333255855      4.60432739445734     -0.19237785192527
  C   -5.95450466234385      4.26627649738150     -1.41815555736248
  C   -5.74972426156872      2.89483018233993     -1.68597545299963
  H   -5.95536492838904      2.33994794786545     -2.59692239452079
  H   -6.37145740680972      5.02927261058486     -2.07352075431522
  C   -4.59123229044874      3.44245539419680      1.71709737899330
  H   -5.15268536724577      2.72071630277643      2.33163385053000
  H   -4.73772958031452      4.45330533091231      2.11537050101290
  H   -3.52157742873747      3.18119890342697      1.74553888425749
  H   -3.81824510323198      1.04688036742970      0.29954466150369
  H   -7.35443338768937      0.99665702843018     -0.44551633600925
  N   -9.08655605215818     -0.99085524048832     -0.57726433306232
  C   -9.70501816570768     -0.08999209384650     -1.42033966796858
  N   -11.01136156591867     -0.23009460871483     -1.43104611358710
  C   -11.26997976144732     -1.26506719887300     -0.55441357234122
  C   -10.10343273312379     -1.75590034340354     -0.02073608278698
  H   -9.89958168670667     -2.52953191313891      0.71256976292447
  H   -12.28645835036108     -1.59647602875084     -0.35112925994937
  H   -9.13450122819260      0.61839037767857     -2.01701195232365
  H   -7.73388297477320     -3.31430600137826     -0.20812918755550
  C   -1.17398998798970     -1.93114179283958      0.12208728921141
  C   -0.00017522366701     -1.22972525945085      0.45881863210943
  N   0.00001852245658      0.03093185998128      0.94464406845104
  C   1.17342366351998     -1.93150734737025      0.12209815999056
  C   0.69429153380698     -3.14598436239473     -0.50044893057253
  C   -0.69523200660191     -3.14577037870513     -0.50045089445696
  H   -1.30924925160094     -3.92836013809490     -0.93954157031791
  H   1.30806783065953     -3.92876346517194     -0.93953866839195
  H   0.00055903877313      3.53502340044466      2.09155905697670
  H   2.93657863407467     -3.87149167356563      0.54968587174200
  H   7.73289472995098     -3.31668264879721     -0.20811367048666
  H   7.35477326847321      0.99439812717083     -0.44538441449082
  H   3.81860107352447      1.04568063512684      0.29972984170257
  H   5.95611312410933      2.33819354203566     -2.59670034678885
  H   6.37305560685815      5.02737214302334     -2.07320609215278
  H   3.52259198223608      3.18001751460900      1.74579050044012
  H   5.15358324582077      2.71910815216976      2.33188691666349
  H   4.73907266077422      4.45180259827701      2.11562788354316
