92
Coordinates from ORCA-job ./opt_b3lyp_cdz
  C   -5.70544929038383     -2.21298249857038     -2.74672945558069
  N   -5.62543280412907     -2.86991015021453     -1.45730645005185
  C   -5.17530681759731     -2.34235723698769     -0.27271044356232
  C   -5.27505585031954     -3.34592155167022      0.68859691143012
  C   -5.81379482613136     -4.43713843857561     -0.03372511699402
  N   -6.03423131103504     -4.14543392023097     -1.31891258350587
  H   -6.05379945138904     -5.43270032228827      0.33883957194333
  C   -4.88748179889364     -3.26797125564510      2.13620020174852
  H   -5.48129701531111     -2.51340391991142      2.68070352851478
  H   -3.82509981028911     -2.99910723662890      2.26357697806990
  H   -5.05025590314403     -4.23667051857574      2.63282753154855
  N   -4.65484635001581     -1.04013827426253     -0.19130319153251
  C   -5.46296087147359      0.09135730895992     -0.09526908375404
  C   -6.86529933778221      0.00087401841176     -0.17051442280354
  C   -7.70617877625007      1.12949979911412     -0.17963680225553
  N   -9.10816124549599      0.94779912484780     -0.27296331343401
  C   -9.75634290531399     -0.07482146124601     -0.95030155401767
  C   -11.11500614610931      0.10581626412351     -0.81287291978340
  C   -11.31141354821735      1.27706244080016     -0.01729669447476
  C   -10.06577772019454      1.77450341447743      0.29621583489593
  H   -9.77224094972765      2.61824556783665      0.91292075881188
  H   -12.26096027215660      1.70162550994268      0.30090829594101
  H   -11.88446205371909     -0.53015773984761     -1.24480516284224
  H   -9.19379192852848     -0.81985852600061     -1.50388999115014
  C   -7.17295611015992      2.41930128286971     -0.09769101614166
  C   -5.78697656329856      2.52522761561376      0.02435363595169
  N   -5.05115741455307      3.71189097612447      0.09192857694992
  C   -3.81289283774973      3.34468980503932      0.13363482157322
  N   -3.62212775504437      1.94856974537035      0.10865018394784
  C   -4.93291674007911      1.39787501307986      0.04714437140119
  C   -2.37860226161446      1.37260254222902      0.32785678706570
  N   -2.36519098845342      0.16195539476425      0.92169245385564
  C   -1.22428986727944     -0.46642135692215      1.22709661636788
  N   -1.20806789957563     -1.68951438634616      1.77038178032394
  C   -0.00004669809677     -2.21523465841458      2.01004450111417
  N   1.20800897912162     -1.68950231908367      1.77058283156454
  C   1.22431160461894     -0.46641438786908      1.22728952694411
  N   2.36525876361849      0.16196980112396      0.92206460495816
  C   2.37876086268058      1.37262358038333      0.32824471025414
  N   3.62231808511713      1.94859077008846      0.10920252429928
  C   4.93311710367069      1.39790526528999      0.04784227365023
  C   5.78717781531086      2.52525921126383      0.02521066885361
  N   5.05134666481201      3.71191807176491      0.09274766989325
  C   3.81307802826542      3.34471266501079      0.13426501130999
  H   2.96290013916381      4.01166158216894      0.24822653032766
  C   7.17317220313963      2.41934145176022     -0.09667058401292
  C   7.70641282510216      1.12954833188618     -0.17862549686707
  N   9.10840441740891      0.94785742453699     -0.27179869677625
  C   9.75666829365075     -0.07474703568925     -0.94908492319339
  C   11.11531468153598      0.10589725335385     -0.81150369393660
  C   11.31162728363073      1.27712509239324     -0.01587678662629
  C   10.06595440530681      1.77455223859232      0.29750784982966
  H   9.77234598158573      2.61827883894515      0.91419967894026
  H   12.26113576041345      1.70168637855880      0.30244459111610
  H   11.88482162197586     -0.53006219246177     -1.24336646817034
  H   9.19418396462682     -0.81977485566561     -1.50275312690188
  C   6.86553188870332      0.00092072728023     -0.16966632889104
  C   5.46318561882059      0.09139600858861     -0.09457782014654
  N   4.65509056639188     -1.04009936450050     -0.19077268960730
  C   5.17557709044742     -2.34230679663110     -0.27220373102575
  N   5.62588089099047     -2.86976432730673     -1.45677550368375
  N   6.03467326511189     -4.14529458961183     -1.31842009392972
  C   5.81406346277539     -4.43709606758192     -0.03328485861416
  C   5.27520561926292     -3.34594265531545      0.68904281437498
  C   4.88742652485903     -3.26809618010956      2.13659685332295
  H   5.48120921453920     -2.51360938382472      2.68124842491093
  H   3.82504402983819     -2.99917278485283      2.26384254311629
  H   5.05007098946359     -4.23684558735205      2.63316785846289
  H   6.05403499417460     -5.43268088821061      0.33924025010497
  C   5.70600895495627     -2.21275781246021     -2.74615108840555
  H   6.65405935005088     -1.66130285720903     -2.86493017840263
  H   4.87165042526700     -1.50420915681296     -2.84522284656999
  H   5.63963463591940     -2.98625816784398     -3.52142069483330
  H   3.77553923554348     -0.94537117499222      0.32448332209688
  H   7.30992473452236     -0.99364233485506     -0.18944680070192
  H   7.78835176402560      3.31504233278486     -0.16106684517385
  C   1.17326558161711      2.03865172774634     -0.02725284881001
  C   0.00007635914537      1.36939249645235      0.37068551637927
  C   -1.17305351521480      2.03864591982805     -0.02742379117418
  C   -0.69504994550376      3.19487443688865     -0.75210638193277
  C   0.69536336335588      3.19481929725832     -0.75209764675064
  H   1.31088031359813      3.93720475401970     -1.25476554606194
  H   -1.31050293118627      3.93729838815198     -1.25479678206714
  N   0.00002886855255      0.16049180540448      0.97428179198691
  H   -0.00007887167825     -3.21486748023359      2.45589823735467
  H   -2.96272877760886      4.01164509593300      0.24767323200707
  H   -7.78813319908439      3.31499481029894     -0.16221066196908
  H   -7.30969672963294     -0.99368705853247     -0.19028757612926
  H   -3.77536730359686     -0.94536892410985      0.32406937593502
  H   -4.87107930803918     -1.50444399221761     -2.84577872403856
  H   -5.63901929394381     -2.98653468541407     -3.52194205828196
  H   -6.65348566088871     -1.66152669476148     -2.86561716578197
