92
Coordinates from ORCA-job ./opt_b3lyp_cdz
  C   -4.73990864462460     -3.07618165414016      1.95110661500798
  N   -4.75835395018156     -3.37116342508450      0.52699967072933
  C   -4.99208335447912     -4.58039628926271     -0.06840926225401
  N   -4.92257626703400     -4.52111572015866     -1.38503218875536
  C   -4.61164092064426     -3.21253699671995     -1.66839231194549
  C   -4.50489186326732     -2.47379328974831     -0.50717892756180
  N   -4.19324982403650     -1.12439477084548     -0.27917301309198
  C   -5.15221092429846     -0.10889734547386     -0.29656274114611
  C   -6.48888999905945     -0.35742028317902     -0.65377207423049
  C   -7.45550361519334      0.66193522353001     -0.73787577082582
  N   -8.77756135922791      0.32774431979578     -1.12692750022533
  C   -9.93221513441506      0.94281290196383     -0.66773133391459
  C   -11.01437948528708      0.34559209515289     -1.27712195375749
  C   -10.50725571164028     -0.66877091087933     -2.14697743793728
  C   -9.13397097237439     -0.66028327606729     -2.03226930250067
  H   -8.37478006793901     -1.24080762799087     -2.54738753199439
  H   -11.08369442303032     -1.32618461486955     -2.79405727473727
  H   -12.05776205872545      0.60230851683063     -1.10752509337616
  H   -9.88093565822285      1.72196223669544      0.08659203875912
  C   -7.12920560004164      1.98791271316656     -0.43829578536027
  C   -5.81341387355941      2.24455745113051     -0.04767703444014
  N   -5.26546182375726      3.48290351371846      0.27298341040413
  C   -4.00030059558549      3.28569444973580      0.49641750213235
  N   -3.63060139744428      1.91928342902362      0.34256155233011
  C   -4.83372819850509      1.23188248321050      0.02644862173445
  C   -2.37693365777112      1.39530609401216      0.65565128448386
  N   -2.36761192809128      0.26972135712922      1.40717882925235
  C   -1.22722879779809     -0.30749155354507      1.79849477095597
  N   0.00039284350856      0.29554952851758      1.48972427169331
  C   -0.00003833517501      1.40936166013068      0.72842751733363
  C   1.17297241136011      1.99704327805942      0.21391957250844
  C   0.69340015948781      2.98652850337415     -0.72726844728313
  C   -0.69486170996720      2.98617603435987     -0.72698608266924
  C   -1.17355253359190      1.99650127886097      0.21445385008822
  H   -1.31919785776588      3.60118537338922     -1.37083505849146
  H   1.31716295361016      3.60185509333119     -1.37137235427149
  C   2.37683078659055      1.39639945561388      0.65455572463475
  N   3.63011428666683      1.92096530330361      0.34088817898403
  C   4.83338191113333      1.23411673609603      0.02413548947377
  C   5.81257710205503      2.24723273506977     -0.05041693483609
  N   5.26423443076396      3.48531736919644      0.27054905018964
  C   3.99926225642948      3.28754758400096      0.49460561133636
  C   3.09309203617899      4.35997610227770      1.01114983921956
  H   3.73427858751050      5.19365888351738      1.32514456917134
  H   2.49942040330276      4.01759765926993      1.87296594384072
  H   2.38973246229969      4.73257225671143      0.25266445331823
  C   7.12829286863643      1.99119496095190     -0.44169122568463
  C   7.45504161504424      0.66537976298585     -0.74149068274661
  N   8.77706009361927      0.33180222795126     -1.13120048260827
  C   9.93165798425863      0.94740368353725     -0.67257693898355
  C   11.01379548074985      0.35068673061199     -1.28250753894119
  C   10.50670935355183     -0.66391040060142     -2.15211204352322
  C   9.13347851949821     -0.65605998979604     -2.03672021228456
  H   8.37430346971368     -1.23693612472008     -2.55146509556387
  H   11.08313004738797     -1.32105618335798     -2.79948004909348
  H   12.05714286789834      0.60788784960114     -1.11342925773013
  H   9.88039531199266      1.72652677070168      0.08177447039994
  C   6.48892501014445     -0.35441263180963     -0.65696450721897
  C   5.15230891524782     -0.10650471302521     -0.29909971410238
  N   4.19380921488905     -1.12243415814916     -0.28129431891074
  C   4.50596134884946     -2.47168147199267     -0.50950701895228
  N   4.76031530608635     -3.36898895183018      0.52450538456602
  C   4.99433219533265     -4.57808189453005     -0.07107798922895
  N   4.92418912254051     -4.51876245594138     -1.38766469118253
  C   4.61251577812545     -3.21031211475105     -1.67080997809792
  H   4.48073877758206     -2.85451376519140     -2.69095898140330
  H   5.20356225798622     -5.47272096988407      0.51434267938619
  C   4.74239964375921     -3.07409810860860      1.94863813947787
  H   3.74664100986336     -2.73051617049358      2.27199099003487
  N   2.36837219989269      0.27081700548028      1.40609944465440
  C   1.22843550081678     -0.30692096583421      1.79793845051993
  N   1.20959565400264     -1.46287730176602      2.47622349802379
  C   0.00120773577755     -1.95556032088104      2.77561154770599
  N   -1.20754506820719     -1.46343473800995      2.47677589771767
  H   0.00155144040659     -2.89850000039972      3.33180014390305
  H   5.48227277330773     -2.29580583381708      2.19303726621747
  H   5.00000803959817     -3.98947359898836      2.49851435352731
  H   3.45179187289205     -0.94918146375300      0.39743748471093
  H   6.77991345859986     -1.38445281837118     -0.85884669239460
  H   7.84081384509206      2.80800879414517     -0.54405392662011
  C   -3.09456048272831      4.35864410541415      1.01254593789397
  H   -2.39163104095423      4.73159215341563      0.25383844198460
  H   -3.73634130128398      5.19187333128146      1.32650136617094
  H   -2.50049556737126      4.01678016218789      1.87429520983502
  H   -7.84214707740584      2.80439910590567     -0.54034464110969
  H   -6.77951569576221     -1.38759938293690     -0.85546799543067
  H   -3.45095218649356     -0.95076715026812      0.39915681091526
  H   -4.48050562655827     -2.85673305546451     -2.68862225270385
  H   -5.20063338079409     -5.47510077189595      0.51715420433870
  H   -5.47998414674126     -2.29817188889791      2.19579146448682
  H   -4.99689888174579     -3.99162692369565      2.50115568244447
  H   -3.74414142296521     -2.73217299522508      2.27398030112749
