23
Coordinates from ORCA-job ./opt_b3lyp_cdz
  C   -0.70986012537456      3.72139709200703     -0.48229878802871
  C   0.03833205159614      2.43161029301596     -0.27375056911855
  C   1.42098421856054      2.39889059649271     -0.13251984112567
  C   2.10633850301825      1.20402760028360      0.06013562180235
  C   1.41081635772169     -0.01222808096594      0.11742010332260
  C   2.03763141018189     -1.27007699516316      0.31102184689442
  C   1.25788661894772     -2.40193372263650      0.35118803292306
  N   -0.07807681442334     -2.40661331652637      0.21840818000344
  C   -0.70991177212995     -1.24610336009741      0.03446639315279
  N   -2.04727242000515     -1.27164465942834     -0.09622893855611
  C   -2.69140895490942     -0.11947447960322     -0.28046380563015
  C   -2.08462800670042      1.12202741268005     -0.34923166338159
  C   -0.67966416313238      1.20534546812382     -0.21780993009935
  N   0.01402367387912     -0.00175077674317     -0.02297015148627
  H   -1.44524901050285      3.90801910181502      0.32057107364210
  H   -0.01288361235527      4.57198102239364     -0.50074385820063
  H   -1.26974774142452      3.72618882314279     -1.43452022850915
  H   1.98067036581069      3.33737686353526     -0.17435550416050
  H   3.18984753527806      1.17850842768392      0.17078897035581
  H   3.12075494146523     -1.30331682291358      0.42254888933442
  H   1.71961941257539     -3.38480788482690      0.49965780316380
  H   -3.78056244814914     -0.19885147323076     -0.38075848972817
  H   -2.66602001992755      2.02718887096164     -0.50123514656976
