92
Coordinates from ORCA-job ./opt_b3lyp_cdz
  C   3.39571252215305      2.34856148507147     -2.72286413400991
  N   4.78941577656990      2.56125468315980     -2.38128544376797
  C   5.64498777307885      3.51031747048288     -2.93527808212365
  C   6.87305707666049      3.30595967106886     -2.35857023224561
  N   6.79775602935181      2.26391270074759     -1.44930638817400
  C   5.54322211245655      1.84520766611829     -1.48476469433597
  N   4.95884433961225      0.80127402387857     -0.77281628566187
  C   5.61856251083101     -0.17393473879953     -0.03206536088236
  C   7.01737182077883     -0.16641259592719      0.13340843041311
  C   7.71266882335884     -1.18716290001370      0.80393484399467
  N   9.12402654698692     -1.10977536087735      0.89579181716173
  C   9.89906212584447     -1.65256449762336      1.91041812324512
  C   11.22168693717825     -1.37885061736627      1.64087981229537
  C   11.26348741527382     -0.64647801569625      0.41341516363559
  C   9.96481492008594     -0.49210843055435     -0.01856814304517
  H   9.56389861946639     -0.02473039460106     -0.91232651170125
  H   12.14881485666827     -0.27862786521591     -0.10050359867593
  H   12.06664537618483     -1.66347264145849      2.26407257796893
  H   9.43646645857467     -2.14724606644460      2.75855699958830
  C   7.03105182446086     -2.26663880934818      1.37286520412640
  C   5.64250915904206     -2.26511743273880      1.25745220940437
  N   4.78612791205768     -3.26543488225009      1.72686379870721
  C   3.60534518176585     -2.90991183762708      1.35040899585635
  N   3.56561475352615     -1.68996707998668      0.63700987451724
  C   4.92199579884229     -1.24689390634581      0.58780943079790
  C   2.36037354372662     -1.08504402614302      0.32385128858043
  N   2.35611074760589      0.26487228680161      0.23059405770826
  C   1.22343219175158      0.96076052939394      0.09076500315354
  N   0.00008653317410      0.28934784914306      0.00176050154757
  C   -0.00057050151885     -1.06219006379769      0.00080315780363
  C   -1.16495206557736     -1.83736368458414     -0.15530326275213
  C   -0.69108033801414     -3.20224050309382     -0.08714688988332
  C   0.68784467316693     -3.20303460506082      0.08572943566629
  C   1.16305157901047     -1.83872094303733      0.15579558042216
  H   1.29698482501966     -4.10172605079955      0.14092162694271
  H   -1.30110620980701     -4.10025331789670     -0.14357923723987
  C   -2.36152401897766     -1.08227537156934     -0.32234572332779
  N   -3.56736482319056     -1.68553944325031     -0.63641155276137
  C   -4.92327150242040     -1.24111179260148     -0.58663061556529
  C   -5.64483479669276     -2.25758286939820     -1.25779969323383
  N   -4.78948388879483     -3.25809559621834     -1.72866935785913
  C   -3.60833927552567     -2.90436554180363     -1.35165124067750
  H   -2.68852188299772     -3.42257054623625     -1.60343897036578
  C   -7.03337984535800     -2.25746441798837     -1.37325883438827
  C   -7.71386891898717     -1.17811002622815     -0.80274452728215
  N   -9.12514503727364     -1.09908996886351     -0.89448373225885
  C   -9.90075323247956     -1.63950758925680     -1.90993722959578
  C   -11.22308446049973     -1.36476999753584     -1.64000074760782
  C   -11.26410990610048     -0.63422124892315     -0.41142360797715
  C   -9.96527823028077     -0.48191741826166      0.02081562076253
  H   -9.56386419758519     -0.01633320435287      0.91529003626265
  H   -12.14904730978450     -0.26620119297033      0.10304499243707
  H   -12.06834207622059     -1.64753192203790     -2.26363449277639
  H   -9.43867460538753     -2.13340574350303     -2.75881403930786
  C   -7.01751084629968     -0.15908843977782     -0.13069851844128
  C   -5.61872213029383     -0.16833393213587      0.03479873914527
  N   -4.95803563867408      0.80507947676968      0.77702842382129
  C   -5.54141631750778      1.84840542619683      1.49064528048447
  N   -4.78690405048591      2.56246702798687      2.38815279157873
  C   -5.64166530374771      3.51131231348684      2.94378063239991
  C   -6.86996068241642      3.30886879205086      2.36687315903441
  N   -6.79562496155473      2.26814108565291      1.45602714481438
  C   -8.15063529059463      4.04411114823779      2.60288422205084
  H   -8.93877355812380      3.36207535255241      2.96476770354554
  H   -8.52388746928119      4.50009383832709      1.67039507697605
  H   -8.01893705806492      4.84288324082016      3.34853027713750
  H   -5.28879696966042      4.22857634957829      3.67921903336425
  C   -3.39334515839554      2.34809060112771      2.72927041880585
  H   -3.20425779651354      1.27354103620951      2.88391542062792
  H   -3.17153999840498      2.87601969576130      3.66657073567458
  H   -2.72048119429699      2.71922064151213      1.93940110324610
  H   -3.97033837308350      0.91069308823374      0.52794144285822
  H   -7.55174335998254      0.69767675291531      0.27305752719618
  H   -7.53938238482374     -3.09164007275319     -1.85577108958896
  N   -2.35595714472133      0.26749730581256     -0.22714055140645
  C   -1.22260244063077      0.96207747196175     -0.08631049348195
  N   -1.20677368014334      2.30220257514407     -0.04493847730668
  C   0.00134910242565      2.87713000564481      0.00358031319496
  N   1.20891240593445      2.30095669061603      0.05128211164753
  H   0.00188611384686      3.97216923780225      0.00435077785277
  H   2.68499411811174     -3.42753012969616      1.60145655501141
  H   7.53617712755290     -3.10206332945013      1.85413487958507
  H   7.55248815449802      0.69041585961338     -0.26903305118586
  H   3.97127065264330      0.90751890392459     -0.52349319812923
  C   8.15436815996953      4.04048532343575     -2.59335814277703
  H   8.94189074685921      3.35841340637917     -2.95651838729114
  H   8.52807113375606      4.49445839123076     -1.66007176483715
  H   8.02333049585183      4.84070974275557     -3.33756206818264
  H   5.29278573644114      4.22899953318883     -3.66965082348830
  H   3.20565785039791      1.27433481003948     -2.87853440740826
  H   2.72305805388971      2.71955416524924     -1.93274999318100
  H   3.17458182514163      2.87756413560348     -3.65971976977454
