84
Coordinates from ORCA-job ./opt_b3lyp_cdz
  C   -4.55428798674969     -3.45402685932551      1.70203196617876
  N   -5.08041459656367     -3.46106980562812      0.34767187987563
  N   -5.53098367987430     -4.61226515829865     -0.19957898617986
  C   -5.96765024119446     -4.26674919042289     -1.41238312891337
  C   -5.78389539717022     -2.89126082393294     -1.67296971834885
  C   -5.20249068575932     -2.39915284888748     -0.50840822404462
  N   -4.73994569335209     -1.12704315076809     -0.16022851212368
  C   -5.50111242304936      0.02870699795879     -0.15214655363310
  C   -6.89195020644246     -0.00806536752680     -0.36936519838090
  C   -7.68672813086877      1.14719429563088     -0.38861417288570
  N   -9.08156005096079      1.00256581652994     -0.61603357875719
  N   -9.57345816925219     -0.15165572732040     -1.13060947400807
  C   -10.88675634963219      0.03713440320657     -1.20642472039592
  C   -11.26481141624697      1.32152674519587     -0.73816087955749
  C   -10.07544796344929      1.91312159938537     -0.36412137018538
  H   -9.86699255389066      2.88405904692350      0.07338632715024
  H   -12.26055065460565      1.75160713379437     -0.67462256671157
  H   -11.51876265928832     -0.75813220218241     -1.59866382382642
  C   -7.13533657544228      2.41498859751816     -0.18472954377006
  C   -5.76160695260030      2.46659460379470      0.04859536974326
  N   -5.00758163595122      3.62745671626684      0.23900155393850
  C   -3.78440930947419      3.22650862590198      0.34248857691365
  N   -3.62159682936510      1.82938249681828      0.24932972966148
  C   -4.94072859648660      1.31408940741334      0.07489835603916
  C   -2.38205661549158      1.23075605747945      0.41626660623741
  N   -2.36550172762139     -0.03271473690806      0.89220608457701
  C   -1.22450778771950     -0.68506115601691      1.13516195856809
  N   -1.20639895118289     -1.95595649459858      1.55884572819761
  C   0.00098462148639     -2.50248005916793      1.74588242720651
  N   1.20802380931023     -1.95523053619483      1.55877087050962
  C   1.22535082908580     -0.68431711855301      1.13507699935363
  N   2.36592588180549     -0.03127138319228      0.89204590154973
  C   2.38169833702782      1.23222572043232      0.41608508506803
  N   3.62087189762801      1.83160355516561      0.24904581735391
  C   4.94031707946223      1.31707500079942      0.07467283462198
  C   5.76049579787958      2.47008285533902      0.04812238986489
  N   5.00577249434201      3.63051536111663      0.23836165690375
  C   3.78284635914097      3.22884076251343      0.34196976010947
  H   2.92822793805184      3.86546098415264      0.55190064476484
  C   7.13424896297761      2.41933845739287     -0.18521815016327
  C   7.68646453658617      1.15186911619125     -0.38891225790806
  N   9.08137815840987      1.00807987667129     -0.61636553601798
  N   9.57405716935534     -0.14619996489866     -1.13006642433568
  C   10.88720275084625      0.04348431720680     -1.20621771411390
  C   11.26438181678212      1.32853834484224     -0.73906062028769
  C   10.07463898607648      1.91956875112675     -0.36534456281741
  H   9.86556102914081      2.89073156681477      0.07135996594566
  H   12.25981204879261      1.75940640513807     -0.67602136881768
  H   11.51973542337859     -0.75164596393781     -1.59788405566919
  C   6.89240865329002     -0.00388019764423     -0.36942620088633
  C   5.50155063242655      0.03202587843775     -0.15216442670712
  N   4.74116429699359     -1.12423798391641     -0.16001070947768
  C   5.20450637184073     -2.39612223940942     -0.50794934018244
  C   5.78612278070145     -2.88813742986243     -1.67244329587396
  C   5.97070142134873     -4.26346171657032     -1.41157251794889
  N   5.53435449909602     -4.60896589222966     -0.19864789445935
  N   5.08314728693267     -3.45791830886180      0.34838091486993
  C   4.55707215516674     -3.45087354359731      1.70276116972475
  H   5.11828260080110     -2.73952558165516      2.32987375196747
  H   3.48991468567859     -3.17893803770788      1.72128229079328
  H   4.68840098225182     -4.46608609938368      2.09542363773461
  H   6.39619926003633     -5.02430296206698     -2.06402139936140
  H   6.02947722708101     -2.32604005131893     -2.56923643280952
  H   3.83474884782979     -1.04629262253024      0.30555465466216
  H   7.37926678422862     -0.96211203291734     -0.53601808821175
  H   7.70650692128291      3.34330329671123     -0.23749804630193
  C   1.17334037837796      1.92570767559928      0.12464437993341
  C   -0.00018060233792      1.22408470265256      0.46132164719784
  C   -1.17415546174495      1.92498719638183      0.12474386844415
  C   -0.69565458046559      3.13912010981818     -0.49865314349074
  C   0.69403210280607      3.13954192759703     -0.49872333053336
  H   1.30777767838757      3.92180698255692     -0.93869728221990
  H   -1.30992839929671      3.92100755133032     -0.93856494998834
  N   0.00021471559938     -0.03721141181765      0.94607149041227
  H   0.00130900214545     -3.54105637629352      2.09161328618462
  H   -2.93016857784144      3.86361676497362      0.55249768061702
  H   -7.70823539013923      3.33856502898983     -0.23689512355509
  H   -7.37820184751414     -0.96657628538202     -0.53612553714216
  H   -3.83361168283151     -1.04863271858517      0.30542413230503
  H   -6.02764626588622     -2.32910693286866     -2.56961992599856
  H   -6.39274871370416     -5.02770017635695     -2.06496472085177
  H   -5.11612532386104     -2.74343365441300      2.32944388277357
  H   -4.68466547455403     -4.46950629996323      2.09432271220823
  H   -3.48737559700127     -3.18113851705520      1.72061336018335
