92
Coordinates from ORCA-job ./opt_b3lyp_cdz
  C   -4.91523279687870     -3.61993506738519     -0.87855917941428
  N   -5.19609471839213     -2.62733762997437     -1.90167599237126
  C   -4.92732284448150     -1.28708654648766     -1.86600566730233
  C   -5.40646569979129     -0.75442253174925     -3.05838189456153
  C   -5.94760328358147     -1.86319326255661     -3.75684063439592
  N   -5.80468267296439     -2.99171619825498     -3.05565531904011
  C   -6.59830837696498     -1.88982533969485     -5.10669115310621
  H   -7.50974549822446     -1.26845659536448     -5.12953993890612
  H   -5.92241412079583     -1.50752317149367     -5.89027810371369
  H   -6.87737891055967     -2.92183393115712     -5.36332199418127
  H   -5.34682793917140      0.28277766781021     -3.37727855128695
  N   -4.24816369058034     -0.70783598992272     -0.79133477799216
  C   -4.71920886285575      0.33908198612864     -0.01698251756272
  C   -6.03602407957682      0.82027571435882     -0.15376103390588
  C   -6.54024956383901      1.89851108593773      0.59343107320150
  N   -7.87430958475759      2.32560298917644      0.37445343647816
  C   -8.72079018749360      2.85063089799975      1.33895625298438
  C   -9.92570958773101      3.15191520871093      0.74221853734736
  C   -9.81485300347449      2.80585286381267     -0.64015551242810
  C   -8.54893668123969      2.29823787051945     -0.83671090551334
  H   -8.05279590284239      1.95763177089519     -1.74019569657285
  H   -10.57558419806336      2.92420782675954     -1.40861042958788
  H   -10.79638497871212      3.56487008010314      1.24684488842662
  H   -8.40321898274056      2.92023018922162      2.37474359041080
  C   -5.74732792272122      2.54386397030757      1.54644319710390
  C   -4.44949600779292      2.06107152815150      1.71872820610932
  N   -3.48908499453721      2.58175890270064      2.58929177549424
  C   -2.41948895435657      1.89029916025079      2.36936740674682
  N   -2.56514919681355      0.88985466779154      1.39062492354857
  C   -3.92355629981343      0.98324795778508      0.96651966256402
  C   -1.53572935752007      0.00545258267146      1.08886767481461
  N   -1.89126128533712     -1.21911650814530      0.64779758165341
  C   -0.98967971236592     -2.17895042402458      0.40377531300239
  N   -1.34280884516915     -3.40029018187339     -0.01218796574160
  C   -0.34478312763311     -4.28314477788432     -0.17046148006815
  N   0.96588377937259     -4.11807749373657      0.02889293492662
  C   1.35889230472182     -2.89759687431730      0.41660068139972
  N   2.64316662775881     -2.58641198437557      0.61421450322992
  C   3.01132246949850     -1.33769076032992      0.94353524415796
  N   4.39254697225026     -1.17993545050480      1.14775720159084
  C   5.24370618926487     -0.07871450305831      0.95197071743569
  C   6.42278825007971     -0.40995044445602      1.66794119815609
  N   6.30386228317529     -1.66657298217495      2.25898846516392
  C   5.12358584183071     -2.09020643202282      1.92098386193603
  H   4.66988353005604     -3.03688260118617      2.20586807999028
  C   7.51753520613731      0.45651279116401      1.73511538414155
  C   7.43797184181446      1.65053707416564      1.01582951197739
  N   8.51060359489007      2.57668481952636      1.04139286369250
  C   8.38775964961772      3.95800838925848      1.02020705851728
  C   9.65119288448690      4.50665417019380      1.06665818641444
  C   10.58391087916752      3.42498235198888      1.11174867061381
  C   9.85756018943049      2.25389874292971      1.09921360463829
  H   10.17911328808141      1.21697272525075      1.08026646600725
  H   11.66891380583667      3.49641725913641      1.13846276824281
  H   9.87998650321691      5.56997286470449      1.07922969573565
  H   7.40809250211614      4.42649888410829      1.02644783942833
  C   6.31460472423144      1.92672707015087      0.20864325327111
  C   5.20373597436187      1.07425445055736      0.13581874610335
  N   4.13697188494509      1.40314151406054     -0.72299005758705
  C   3.63557554196881      0.47203826880660     -1.64946433262018
  N   2.42681841815925      0.67755696828379     -2.25411340620386
  N   2.10581722691455     -0.33996673375196     -3.09672403224975
  C   3.10547919183721     -1.21703927167012     -2.99231992451138
  C   4.10876244040392     -0.75282966466910     -2.09979214942067
  H   5.03748387540717     -1.24116847706232     -1.82089216267800
  C   3.07175902874977     -2.50560029226536     -3.75576612001547
  H   2.18726577026970     -2.53000025237667     -4.40815062219447
  H   3.02781023636221     -3.37213218388814     -3.07435322475322
  H   3.97133681479058     -2.62611607371529     -4.38191937902640
  C   1.59336486989553      1.86105006754203     -2.19919346940119
  H   0.57974430237626      1.56667355977052     -2.49898586124040
  H   1.94884647091060      2.64618253011685     -2.89047395775571
  H   1.57468943542973      2.25573381193023     -1.17304350166061
  H   4.22243408163601      2.34456281240616     -1.09906517696380
  H   6.33752358220821      2.80757678718284     -0.43598217348444
  H   8.38482959811278      0.19897012402499      2.34157997945048
  C   2.08121419688629     -0.29769255952049      1.16717803272559
  C   0.73735829856351     -0.67916031271908      0.98253426872394
  C   -0.16944975292869      0.35932450257909      1.26681549235514
  C   0.67951909942495      1.47216930703525      1.64809119226494
  C   2.01153753597378      1.07789685620093      1.59856822940883
  H   2.86221428362399      1.70863111371472      1.84120306240470
  H   0.34503234304526      2.47017364731312      1.92099281148599
  N   0.36928719496642     -1.91755126485222      0.59885343563295
  H   -0.64979295461907     -5.27907131990438     -0.50798873945521
  H   -1.48656827147481      1.98895560164082      2.91636588145392
  H   -6.08873193200755      3.41165426734501      2.10791401572013
  H   -6.69172528641569      0.30705837343220     -0.85530899494514
  H   -3.43799776002171     -1.19706958816458     -0.40298986925891
  H   -5.41172859393839     -3.35096753067207      0.06796332906973
  H   -5.32066128142865     -4.57068728294113     -1.24449845043230
  H   -3.83350076712212     -3.72196966374574     -0.69719935288067
