126
Coordinates from ORCA-job ./opt_b3lyp_cdz
  C   13.10685109769461      3.31772847959773      1.43312558748591
  C   12.02118456218830      2.31513186021370      1.11485169829904
  C   12.30953363748514      1.12061383740043      0.45022436283999
  C   11.28333093791958      0.20761560788372      0.16041983881913
  C   11.25317869523653     -1.09345188765769     -0.47920717869388
  C   9.90272284125051     -1.52859007557727     -0.45815880127061
  N   9.11544683930911     -0.55049667241762      0.16127970790186
  C   9.94947697169543      0.50721159855509      0.54105571359799
  C   9.64159366452243      1.69248105147879      1.22179607471726
  C   10.68357128094691      2.57720600527201      1.49469526279026
  H   10.45821640142311      3.50638690446626      2.02610373549335
  H   8.62162351817064      1.91450593715833      1.53926465554959
  C   7.70567111923837     -0.61392763771377      0.35619830300320
  C   7.14991512698395     -1.65513514695645      1.09778420293286
  C   5.76032062111946     -1.64180222238457      1.24047375071507
  N   4.99481129166516     -2.60669084987569      1.89949317209874
  C   3.76878928575902     -2.22973725114504      1.74870351225082
  N   3.61764347776334     -1.02906196348008      1.02689939839041
  C   4.94348225070243     -0.62080218676222      0.69907297224693
  C   5.49553614402972      0.43418995864775     -0.09010429919340
  N   4.69587146804150      1.36585826068035     -0.71325391495556
  C   5.09938498770175      2.54832486639650     -1.50950585998445
  C   3.77386090786739      3.22739577862631     -1.90634551973558
  H   3.97190688288340      4.12678621438821     -2.50929583379028
  H   3.19843752914406      3.52937943286172     -1.01609398892348
  H   3.15199788375201      2.54171499986603     -2.50488188140279
  C   5.82508544047800      2.13067482499668     -2.80418844996989
  H   6.81135988886150      1.68048661137548     -2.62716447337476
  H   5.21719395410346      1.40158245769332     -3.36277504667520
  H   5.97821009691367      3.01479028837970     -3.44379966783942
  C   5.93844179460430      3.55452738021662     -0.69123030883001
  H   6.90653396478954      3.14172323424912     -0.37342256459681
  H   5.38866600869392      3.86464735502576      0.21194474930857
  H   6.14424305461400      4.45554830544013     -1.29232785255324
  H   3.80670059395469      1.49316771149598     -0.22850746597532
  C   6.90287819963516      0.38687160701162     -0.21931557436825
  H   7.40847871989888      1.14956525424072     -0.80212073147993
  C   2.37882456003429     -0.40900904117162      0.92509660128225
  N   2.36624263319059      0.93880705013893      0.87939235237935
  C   1.22503079579244      1.63580438400173      0.85193317416428
  N   1.20655002641468      2.97198412925303      0.75878744702519
  C   -0.00245700250146      3.54583494808647      0.72430458734797
  N   -1.21087157404671      2.97067983548225      0.75777120617392
  C   -1.22798802201797      1.63448126401361      0.85090206457846
  N   -2.36846923777377      0.93625357960732      0.87739808209530
  C   -2.37963039327588     -0.41157441140704      0.92312026113237
  N   -3.61785822991924     -1.03296012574622      1.02393134518399
  C   -4.94387038741459     -0.62613416091506      0.69502120066538
  C   -5.76005031847833     -1.64797093638452      1.23583272905844
  N   -4.99403494270928     -2.61202494254625      1.89548953368932
  C   -3.76829509028468     -2.23378097402906      1.74564352354753
  H   -2.90025195508006     -2.72426144364308      2.17773154092924
  C   -7.14951760478053     -1.66278274932123      1.09207479484660
  C   -7.70580600417129     -0.62221049069170      0.34999013559074
  N   -9.11549190426014     -0.56028062278162      0.15396876331370
  C   -9.95089843448201      0.49668596350616      0.53280512332600
  C   -11.28414288572242      0.19563588937884      0.15118903772091
  C   -11.25217118323929     -1.10558259449657     -0.48804614913703
  C   -9.90129155292483     -1.53934365730669     -0.46582262326010
  C   -9.52549589084499     -2.76217447094325     -1.03630503567614
  C   -10.52335667876695     -3.54591924484261     -1.61244849176911
  C   -11.88106453439946     -3.14787548542105     -1.64035741447702
  C   -12.23329607910599     -1.91967344981389     -1.07588812386649
  H   -13.27593663361908     -1.59030868215242     -1.09496703100285
  C   -12.91874061894008     -4.04778835253586     -2.27167604683740
  H   -12.66525943029286     -4.28509827987586     -3.31933103571357
  H   -13.91469600653964     -3.57930154410342     -2.26643407469102
  H   -12.99983903359643     -5.00964907496631     -1.73561194486311
  H   -10.24535987141520     -4.50429575212487     -2.06053602103373
  H   -8.48590227820261     -3.09294142913329     -1.03333665710503
  C   -12.31151077376654      1.10765514816018      0.43994485116939
  C   -12.02491458867114      2.30264036736157      1.10448611496943
  C   -10.68787379097452      2.56616375163444      1.48535328371287
  C   -9.64477636336922      1.68243039723189      1.21351812109751
  H   -8.62529803503327      1.90556178219350      1.53178825890552
  H   -10.46389416125005      3.49569542550289      2.01672877100116
  C   -13.11183692102684      3.30429282149563      1.42147239672173
  H   -13.16235642215107      3.51789874842578      2.50312859660838
  H   -14.10086908899655      2.93800886013845      1.10672499546194
  H   -12.93545071631517      4.26795767391732      0.91219293832956
  H   -13.34062459135465      0.88027938721512      0.14810534372982
  C   -6.90361585503464      0.37939565732758     -0.22496678973660
  C   -5.49642564790513      0.42822347852152     -0.09465166303969
  N   -4.69726451494928      1.36069402903898     -0.71726226955283
  C   -5.10143905251913      2.54275940391099     -1.51378730186660
  C   -3.77634833453983      3.22324852878703     -1.90962978086881
  H   -3.15328145865573      2.53822465936695     -2.50766784475153
  H   -3.97490944714939      4.12240454323439     -2.51275771112147
  H   -3.20193871544759      3.52588246385618     -1.01894182483433
  C   -5.82573395403629      2.12436813839536     -2.80902389922655
  H   -6.81164474327665      1.67309346794060     -2.63274547671584
  H   -5.97935516555654      3.00834527264181     -3.44870777222313
  H   -5.21663637087129      1.39596794444480     -3.36719859090055
  C   -5.94216255965353      3.54806603161329     -0.69611482379286
  H   -6.91005835139299      3.13424198945937     -0.37905379668297
  H   -5.39339175797680      3.85873273892329      0.20748318904328
  H   -6.14845457281066      4.44888957926996     -1.29734061195356
  H   -3.80856898370020      1.48892088432918     -0.23188835545655
  H   -7.40955428216698      1.14149209908012     -0.80825474473849
  H   -7.75102910305924     -2.45123678405868      1.54142294510606
  C   -1.17287756735192     -1.16426194693925      0.91251231636547
  C   -0.00042847521134     -0.38621415792495      0.95174096078579
  C   1.17289375515020     -1.16299634639365      0.91348978129553
  C   0.69602089157262     -2.52421634406691      0.81076898187781
  C   -0.69445184829427     -2.52496908980215      0.81022084838884
  H   -1.31143951248236     -3.41529950309159      0.71292127091728
  H   1.31404916289841     -3.41387846717899      0.71396566199427
  N   -0.00114531339277      0.96429528192584      0.92170404524596
  H   -0.00301587225085      4.63825556017707      0.65049188745029
  H   2.90092386831266     -2.72115433526006      2.18008352534089
  H   7.75192121794761     -2.44298362246256      1.54753524058267
  C   9.52861255350009     -2.75167432846963     -1.02920242776666
  C   10.52771555836297     -3.53426475631081     -1.60474434790998
  C   11.88503972792475     -3.13482400164397     -1.63150033707848
  C   12.23558672259271     -1.90642334215411     -1.06644677127728
  H   13.27791540515572     -1.57601693114999     -1.08460128933426
  C   12.92404203714866     -4.03334726682903     -2.26256470375648
  H   13.92016746255167     -3.56528432566771     -2.25326520297058
  H   12.67337462234896     -4.26752322212886     -3.31159924848523
  H   13.00322630901814     -4.99678102757814     -1.72907215253301
  H   10.25104617374679     -4.49282521136888     -2.05326161363865
  H   8.48935897628937     -3.08351657012774     -1.02708083734411
  H   13.33910685256314      0.89437666126681      0.15912316035643
  H   12.92905415660293      4.28195813194784      0.92542420318189
  H   14.09628748675742      2.95323570613002      1.11756990559251
  H   13.15737851044395      3.52969525995170      2.51511259827827
