50
Coordinates from ORCA-job ./opt_b3lyp_cdz
  N   -8.92916123763516      0.02671837672178      0.54047999858967
  C   -7.57834121599413      0.14835936170620      0.34498312000300
  N   -7.12710748816898      1.38049507986525      0.04279313939669
  C   -5.80265014930181      1.42295499155581     -0.08703998462055
  N   -5.08831141670112      2.58909965382199     -0.38576798177810
  C   -3.84555614316842      2.22776494759068     -0.38900843323347
  N   -3.62935255122261      0.86580393301773     -0.11793234595192
  C   -4.93128690230387      0.32527654013547      0.05881017732492
  C   -5.51957930231428     -0.92660684807228      0.38819846991837
  N   -4.83489483774077     -2.07360899618537      0.62501332206055
  H   -5.41127122330454     -2.90644563340714      0.67662201131851
  H   -3.89625338918305     -2.14256774067417      0.23405311955566
  N   -6.85653079007748     -0.97920367731681      0.50759256608420
  C   -2.38077629460200      0.26993939899353     -0.16454742546243
  N   -2.36432170417335     -1.06296708510971     -0.36611838435206
  C   -1.22347022247383     -1.75151151248561     -0.46482109657053
  N   -0.00002505654157     -1.07761243187031     -0.41291527063856
  C   -0.00001174452418      0.25727303192830     -0.19885576147394
  C   1.17454622363394      1.01382991627113     -0.01740235981686
  C   0.69534686442291      2.33062904629357      0.33585854891656
  C   -0.69535532088582      2.33063786870145      0.33586164693452
  C   -1.17456758572050      1.01385615693038     -0.01744347278375
  H   -1.30582848450092      3.18941149527584      0.60373904790382
  H   1.30583159676816      3.18939400619286      0.60373964130598
  C   2.38075840032907      0.26989724110750     -0.16445112221503
  N   3.62931588154732      0.86578289110703     -0.11786610216433
  C   4.93130715928191      0.32532226851167      0.05877229931686
  C   5.80261430511235      1.42300692266445     -0.08744169665277
  N   5.08817499185878      2.58909312763279     -0.38619527691884
  C   3.84543639675524      2.22772630865380     -0.38913831529331
  H   3.00892202034137      2.87521614092084     -0.63551790867629
  N   7.12708507443747      1.38064922905533      0.04216761443112
  C   7.57843806946390      0.14857992359268      0.34454759197575
  N   8.92921425172931      0.02700172222668      0.53954475862959
  H   9.49964496454430      0.77903685971726      0.17206476214667
  H   9.30748164701995     -0.91138092243931      0.50151566356347
  N   6.85667671091227     -0.97896085655989      0.50766867013502
  C   5.51971150005440     -0.92642563359273      0.38852277133672
  N   4.83509869805671     -2.07335275377632      0.62600448565589
  H   5.41153899753611     -2.90614860042209      0.67766453576685
  H   3.89645319943469     -2.14252038098157      0.23508326284700
  N   2.36427334798409     -1.06301053777840     -0.36604292811503
  C   1.22341610777885     -1.75153025290787     -0.46478822764513
  N   1.20870750637791     -3.08278943778256     -0.60923914259169
  C   -0.00004177437556     -3.65486191261017     -0.67658218585934
  N   -1.20878582571669     -3.08276968947805     -0.60927126524027
  H   -0.00004964301721     -4.74338598750100     -0.79619758580444
  H   -3.00910488821535      2.87531692239092     -0.63543580806765
  H   -9.49945169301370      0.77851680645421      0.17219789234069
  H   -9.30720704910278     -0.91173307538614      0.50097960456808
