70
Coordinates from ORCA-job ./opt_b3lyp_cdz
  C   10.24961751150038      2.28362876024903      0.55322732005111
  C   9.60546000573427      0.97604224961082      0.07462732230247
  N   8.16938896040412      1.24920351726721      0.13683891632193
  C   7.22825593421676      0.26656388952089     -0.04607583229940
  C   5.82989775196273      0.48131592360500      0.11677837860066
  N   5.16757444164897      1.65551725906204      0.48571135514459
  C   3.90531019433209      1.36153310950110      0.49049227927614
  N   3.63808993589791      0.02700206092747      0.14934314326508
  C   2.37810817598968     -0.55423683056672      0.07864827863877
  N   2.36717110551000     -1.89606843618142      0.04649702072272
  C   1.22791705241642     -2.59176926331443      0.01306467650656
  N   1.20972045186119     -3.93064799821199      0.00230014397179
  C   -0.00003053126074     -4.50370889438336      0.00009547624269
  N   -1.20976110575794     -3.93060574551363     -0.00211122240285
  C   -1.22790128999597     -2.59172459252094     -0.01285380107620
  N   -2.36711976183913     -1.89597824638600     -0.04629868584203
  C   -2.37805370389722     -0.55414652441023     -0.07848311760331
  N   -3.63804734208515      0.02705029324651     -0.14920067524377
  C   -4.90259167763008     -0.56979011187733      0.07971840017351
  C   -5.82990047367523      0.48122601836563     -0.11690130223447
  N   -5.16755853951244      1.65563577764179     -0.48513255557526
  C   -3.90527958022969      1.36172914051408     -0.48976857341817
  H   -3.10867998029143      2.03849090573548     -0.77772545038437
  C   -7.22828567489520      0.26634688305429      0.04553123186053
  N   -8.16942800535125      1.24904393514127     -0.13703891542700
  C   -7.88639859571917      2.67424465098538     -0.35659121654818
  C   -9.24023663088518      3.34907390076588     -0.10423342369469
  H   -9.36378116476184      3.55656465998386      0.97275103762969
  H   -9.34042488641368      4.30207042884982     -0.64496585842950
  C   -10.24970063030491      2.28360723453396     -0.55327041811459
  C   -9.60550848545847      0.97571178921411     -0.07549551185924
  H   -9.87530965862445      0.11777801293356     -0.71533075215814
  H   -9.92191726406790      0.72430740730333      0.95749071107400
  H   -10.33331408190172      2.28063055182137     -1.65344295368611
  H   -11.25838655715799      2.42910931619699     -0.13892016051770
  H   -7.09379986961079      3.02792332010619      0.31667205330499
  H   -7.52626766270613      2.85323006464016     -1.38659301039299
  C   -7.59917166905732     -1.05230248302698      0.40800491345469
  C   -6.65329103228541     -2.06858214382285      0.59047672537634
  C   -5.27974924778128     -1.86876416005173      0.43325551762438
  H   -4.55397307817781     -2.66632958498732      0.55331731389365
  H   -7.01099381660697     -3.06413850188645      0.86495929993489
  H   -8.65158707278491     -1.29029936213258      0.55773863398619
  C   -1.17596671774593      0.21185631682625     -0.04180412850001
  C   0.00002302059231     -0.56634570869128      0.00012296235364
  C   1.17605738050642      0.21178958843311      0.04194708229466
  C   0.69530819662549      1.57345732191175      0.01901536353636
  C   -0.69510324991595      1.57349829743934     -0.01908838259562
  H   -1.29864171723112      2.47701246017245     -0.01510938679907
  H   1.29895082121734      2.47690280958218      0.01488685719404
  N   0.00001637500297     -1.91683051911618      0.00013399578784
  H   -0.00004917582188     -5.59919146082161      0.00009444012217
  C   4.90260182733307     -0.56965471263406     -0.08012724062066
  C   5.27973112210219     -1.86844095279065     -0.43437906304002
  C   6.65323949281083     -2.06811552692995     -0.59204786376581
  C   7.59911244769408     -1.05187255627939     -0.40931774621384
  H   8.65150132944063     -1.28972790365601     -0.55946797502308
  H   7.01092961416843     -3.06351774915004     -0.86710482708052
  H   4.55396365638206     -2.66599749656048     -0.55457790961631
  H   3.10870737565187      2.03807323628376      0.77898751403675
  C   7.88627479759427      2.67438815030317      0.35646786880224
  H   7.52570201277795      2.85321481385631      1.38632325916763
  H   7.09394776133531      3.02817059165092     -0.31708544532395
  C   9.24018463611643      3.34931754745203      0.10465148235793
  H   9.34030020317666      4.30201727853996      0.64591848061772
  H   9.36388403379879      3.55742126722777     -0.97219584215815
  H   9.92162911050022      0.72552677781479     -0.95865900232950
  H   9.87550989939674      0.11762249417633      0.71368964199579
  H   11.25835556607804      2.42937245685085      0.13908948679492
  H   10.33306372966565      2.28000799660543      1.65341166555544
