46
Coordinates from ORCA-job ./opt_b3lyp_cdz
  O   -6.68915503749466     -2.70131448132626      0.00379953679168
  C   -6.43141465888103     -1.51476552104389      0.00190149510191
  N   -5.11461562997131     -1.03762220533220      0.00095993844874
  C   -4.87286783712759      0.30314237384485     -0.00129028615428
  N   -3.64763338671174      0.97362075410028     -0.00245395307711
  C   -3.99718368013105      2.35051129930757     -0.00472812720228
  N   -5.27723402789122      2.54323167165958     -0.00493338182598
  C   -5.84769588866683      1.27761256451885     -0.00276097993815
  C   -7.25655785722429      0.90080608682507     -0.00194494025620
  O   -8.22993657562585      1.62604389676137     -0.00295411998848
  N   -7.39846005940378     -0.51300745288867      0.00045572980379
  H   -8.35719196777510     -0.85354007124335      0.00114399302620
  H   -3.23908126077804      3.12333881032884     -0.00636922538801
  C   -2.37245472920615      0.40979021684016     -0.00146681271522
  N   -2.36226516162828     -0.93342666543176     -0.00029875043909
  C   -1.22189971581770     -1.63464954651785      0.00054148081023
  N   0.00000030967506     -0.95332336871462      0.00034141718476
  C   -0.00000093323152      0.39581155061283     -0.00063831178074
  C   1.17659804102215      1.17633721040939     -0.00087597532811
  C   0.69375952475826      2.53897521798864     -0.00228449770723
  C   -0.69376375578050      2.53897395770989     -0.00273968259043
  C   -1.17660096422182      1.17633501525201     -0.00169026048369
  H   -1.29265940284707      3.44494503492248     -0.00368909054611
  H   1.29265464203839      3.44494675684926     -0.00317949428989
  C   2.37245290763205      0.40979517126282      0.00015477696411
  N   3.64762996918381      0.97362994408320      0.00053640526908
  C   3.99717604783824      2.35052214638860      0.00238946555396
  N   5.27722582107819      2.54324671005551      0.00224486914576
  C   5.84769133668374      1.27762894204426      0.00025948224632
  C   4.87286614377296      0.30315517906892     -0.00069757532187
  N   5.11461753539205     -1.03760904540025     -0.00279543282675
  C   6.43141782540217     -1.51474825678366     -0.00401498697071
  O   6.68916162042903     -2.70129686197315     -0.00563367166201
  N   7.39846024169719     -0.51298655546413     -0.00319818048697
  C   7.25655430352223      0.90082675039083     -0.00087189683115
  O   8.22993078303038      1.62606814053232     -0.00054897594448
  H   8.35719302535392     -0.85351614821083     -0.00416135799243
  H   4.34244894457980     -1.69990567395612     -0.00244820340381
  H   3.23907124661583      3.12334680920699      0.00433334241700
  N   2.36226599989229     -0.93342204327396      0.00086679005942
  C   1.22190160610641     -1.63464721607238      0.00098700081131
  N   1.20765158085475     -2.96903013377130      0.00177832978796
  C   0.00000249557956     -3.54868059711432      0.00202239164894
  N   -1.20764757801523     -2.96903233266543      0.00149509571709
  H   0.00000341862635     -4.64325168544659      0.00274036640419
  H   -4.34244427603395     -1.69991539783364      0.00159221385885
