64
Coordinates from ORCA-job ./opt_b3lyp_cdz
  N   -7.19403027280184     -2.98233981772475      1.17837405269762
  C   -8.21008154210942     -2.47423621105810      0.36404847745988
  C   -9.42790040390251     -2.97884766733974     -0.03972716545369
  N   -10.15078264613043     -2.03137964794675     -0.74320247149639
  C   -9.39556028957083     -0.96591957572543     -0.77039891849822
  N   -8.18609222619204     -1.15809741337376     -0.10432810028099
  C   -7.20442909129556     -0.15878028759993      0.08251841188950
  C   -5.82756820538134     -0.39691290770178     -0.09992127468249
  N   -5.18026981293454     -1.58471083292051     -0.44783074841039
  C   -3.91691277741713     -1.28798044487286     -0.49555128866644
  N   -3.63962172272979      0.05111284237709     -0.20605776560211
  C   -4.89415568388353      0.65651222185386      0.04068506697805
  C   -5.27474391947750      1.96462972202035      0.35350318468928
  C   -6.64160800832034      2.17871543753450      0.53963636806879
  C   -7.58592384318861      1.14679623613780      0.41673957163105
  H   -8.64194436106126      1.35536480597610      0.59324749623998
  H   -6.98970386632020      3.18206324712321      0.79354387072574
  H   -4.54605391323036      2.76628545766965      0.43023738002410
  C   -2.37430152929921      0.63647877029711     -0.19782193523012
  N   -2.36754706907486      1.97533108193071     -0.22591342561954
  C   -1.22669483842561      2.67332341816071     -0.23777739113002
  N   0.00014264216368      1.99565660669814     -0.25542389784267
  C   -0.00013620130657      0.64681464538524     -0.22061580020716
  C   -1.17590495420463     -0.13004119284589     -0.15769024994956
  C   -0.69593987955312     -1.48498877807556     -0.01434564646500
  C   0.69455390820534     -1.48523672784455     -0.01321225161473
  C   1.17526892582489     -0.13042946962289     -0.15570387718176
  C   2.37402986576436      0.63561754726532     -0.19356371929871
  N   3.63919550707624      0.04999135968040     -0.19978851137460
  C   4.89368205625442      0.65568999872523      0.04662383637037
  C   5.82721389950182     -0.39773548207029     -0.09316987272798
  N   5.18006536126634     -1.58584524189701     -0.44033399493638
  C   3.91671274978895     -1.28927508540204     -0.48846502851339
  H   3.12710948447396     -1.97958559747843     -0.76691216136920
  C   7.20404506213714     -0.15946141282719      0.08922823788415
  N   8.18571166444730     -1.15892290803180     -0.09680806731977
  C   9.39520971102711     -0.96725563607590     -0.76297814153354
  N   10.15044808520734     -2.03267885617135     -0.73489627058474
  C   9.42756544985082     -2.97958895595906     -0.03067189699450
  C   8.20973302632295     -2.47466863357033      0.37267499311797
  N   7.19370877093269     -2.98212828418882      1.18743786593917
  H   7.42869095444453     -3.92436232034948      1.49373790184087
  H   6.29824733783347     -3.00027455093090      0.68981949397055
  H   9.82055515296697     -3.97700574370073      0.15802746640647
  H   9.60747674073074     -0.03615429439003     -1.28416970899320
  C   7.58548789448248      1.14636935392584      0.42252894775624
  C   6.64110309964575      2.17830997960695      0.54463634433322
  C   5.27425577218824      1.96402856291860      0.35857521494141
  H   4.54554200912897      2.76569667452457      0.43483183783815
  H   6.98911625544401      3.18185402064945      0.79787489863698
  H   8.64148601769113      1.35511213980468      0.59896839614229
  N   2.36768649316396      1.97445887091848     -0.22111452404884
  C   1.22720087043171      2.67286052091304     -0.23555230328756
  N   1.20956024406130      4.00949449440721     -0.23238491894018
  C   0.00062673256938      4.58536714340164     -0.23699539001588
  N   -1.20853373365646      4.00993630881766     -0.23449555646302
  H   0.00082721548975      5.68040153441672     -0.23781497238245
  H   1.29907061238151     -2.37926881346521      0.11584361913782
  H   -1.30103914919858     -2.37876812723952      0.11371278463964
  H   -3.12717170526168     -1.97796422058447     -0.77444632821791
  H   -9.60783249680633     -0.03440346028787     -1.29084764330340
  H   -9.82087277165443     -3.97642982978806      0.14814209923737
  H   -6.29857301012099     -3.00006120713902      0.68073723834707
  H   -7.42899911198955     -3.92480841834102      1.48395089029311
