73
Coordinates from ORCA-job ./opt_b3lyp_cdz
  C   -4.84322447509491     -2.90238077332251      1.42584429118265
  N   -5.25818086090806     -3.02472725505942      0.03764477259119
  C   -5.18144579404151     -2.01858872945504     -0.91312806276785
  C   -5.63787397563987     -2.52760627713945     -2.11962003499855
  C   -6.00347192936276     -3.88450097223672     -1.89323107613957
  C   -5.74760801092845     -4.16261090288367     -0.56257749383364
  H   -5.86216687866490     -5.08180224916133      0.00643049250509
  H   -6.40071102557331     -4.58515437096428     -2.62398234335344
  H   -5.69324955673920     -1.97080265824610     -3.05202673118363
  N   -4.68164604331744     -0.74541708708415     -0.59221185695877
  C   -5.47400884269079      0.37418480857262     -0.38578082819416
  C   -6.87940412591375      0.32442858567358     -0.52207713923778
  C   -7.69598659911415      1.45266220321512     -0.39154313235554
  C   -7.16416958762457      2.71252167824164     -0.11649292545833
  C   -5.77882423568620      2.78957383463860      0.03369624363275
  N   -5.02773300863613      3.94629947041539      0.26744216432809
  C   -3.79618271748742      3.56246521663698      0.27491507558369
  N   -3.62125816888501      2.17418650779095      0.07647745384973
  C   -4.94063465888948      1.65125611706890     -0.07230236499912
  C   -2.38306503763011      1.57469094732417      0.21526709083321
  N   -2.36486518047187      0.29416659556599      0.65293921865542
  C   -1.22730771398791     -0.35939831573705      0.88255081601657
  N   -1.21140973441520     -1.64020261909326      1.28193316303421
  C   0.00006797657303     -2.18375565860584      1.46031884358340
  C   0.00000453930363     -3.56491949716305      1.90947246004743
  N   -0.00006008776628     -4.66851787774239      2.27350649303010
  N   1.21159217059785     -1.64035006796938      1.28181404197316
  C   1.22760769443565     -0.35954703563342      0.88243186228611
  N   2.36522097344194      0.29387356343421      0.65270012878181
  C   2.38354767382141      1.57438315394502      0.21499064569483
  N   3.62180292569079      2.17371336465693      0.07602843415019
  C   3.79692534646288      3.56197906386027      0.27440251698773
  N   5.02851843323222      3.94566700964319      0.26673366853918
  C   5.77944134848189      2.78885020543105      0.03290211694604
  C   4.94110278488787      1.65062594141312     -0.07295276099274
  C   5.47429192225607      0.37349172821008     -0.38649145549335
  N   4.68178064335810     -0.74602122072904     -0.59275611078106
  C   5.18133443885202     -2.01923948067930     -0.91385600842097
  N   5.25793775815302     -3.02549198807783      0.03680587542987
  C   5.74709458939161     -4.16341097037478     -0.56357195004384
  C   6.00291386897236     -3.88521192933363     -1.89421566111833
  C   5.63757499844198     -2.52822004661028     -2.12043571991155
  H   5.69300547190401     -1.97132978149489     -3.05278751953830
  H   6.39996711771665     -4.58586414117647     -2.62506917634981
  H   5.86152697394958     -5.08267980020669      0.00533566343750
  C   4.84308454236533     -2.90321882035307      1.42503877684768
  H   5.34903581293093     -2.05157726221282      1.90650887908391
  H   5.12155714423250     -3.82251701056725      1.95716125183384
  C   0.00024018621339      1.56324686198006      0.26056075819410
  C   -1.17363753259529      2.27579972563802     -0.05346585004238
  C   -0.69538254145157      3.50931403874312     -0.63381002049756
  C   0.69601161401726      3.50922757653293     -0.63388249256361
  C   1.17417657616643      2.27565149786476     -0.05358948447984
  H   1.31193482761300      4.30578841638001     -1.04454447203758
  H   -1.31124938720119      4.30595551352834     -1.04440116083904
  N   0.00018151741719      0.29016296249248      0.71120259304876
  H   3.75385425192214     -2.75895813785919      1.51100524584999
  H   3.76496021651051     -0.69615467672327     -0.14869019648482
  C   6.87966277951660      0.32357634236100     -0.52300572685314
  C   7.69639052183835      1.45171859263458     -0.39261929749794
  C   7.16475384053491      2.71164251422408     -0.11750163091081
  H   7.77771481306267      3.60904116550123     -0.03474300301156
  H   8.77505992066647      1.33230576691867     -0.51801911475286
  H   7.32705900092605     -0.64350509373192     -0.75476189116786
  H   2.93976363916034      4.19615921642101      0.48329023365135
  H   -2.93891225191732      4.19653747527821      0.48368662140164
  H   -7.77702039261292      3.60998534746826     -0.03362270186438
  H   -8.77468917294451      1.33337173577939     -0.51677563796160
  H   -7.32694389662327     -0.64259877885135     -0.75377836185535
  H   -3.76478081760927     -0.69567603466603     -0.14822674385426
  H   -5.12161711365201     -3.82167031977824      1.95802331812510
  H   -5.34917087697554     -2.05074144198531      1.90732502606222
  H   -3.75399462196648     -2.75808246257551      1.51171790160640
