74
Coordinates from ORCA-job ./opt_b3lyp_cdz
  C   4.66114402506578      2.96090507710406     -1.30192710878912
  N   5.16275313282014      2.97151075169918      0.06406000284613
  C   5.16647361793563      1.89234897712922      0.93390436364413
  C   5.66394549505562      2.32196899312012      2.15638988855958
  C   5.96958780076197      3.70531045801328      2.02289527651874
  C   5.63753564513006      4.07736206039069      0.73277816537260
  H   5.68937238049966      5.04252615281853      0.23543325482231
  H   6.38116803486298      4.36003905099497      2.78758647907469
  H   5.78756616471935      1.69628998101079      3.03709612144535
  N   4.69336630205871      0.63254967152606      0.53640196411193
  C   5.47898557114139     -0.49480672223077      0.36942629992671
  C   6.88432140656325     -0.44741374130169      0.51862350298088
  C   7.69952946800622     -1.57767606670952      0.41093891107270
  C   7.16778651543341     -2.84046091835858      0.14659742979930
  C   5.78422180067332     -2.91659282014908     -0.01434617421078
  N   5.03582570820278     -4.07657441042824     -0.24164251973175
  C   3.80446121712917     -3.69451374815082     -0.26267212228754
  N   3.62591544391458     -2.30408025978917     -0.07998034538605
  C   4.94498905735105     -1.77682313635997      0.07228550401882
  C   2.38574788318838     -1.71177920490474     -0.21554948380236
  N   2.36318245128032     -0.42443591523396     -0.63657393515261
  C   1.22704316724671      0.22909730893370     -0.85375184442282
  N   1.20444851521769      1.52159648552599     -1.22283897872933
  C   -0.00000555750355      2.03922840684106     -1.37726346329311
  N   -0.00024848836968      3.50702566695538     -1.80057173070542
  O   1.08798109214638      4.03238081452220     -1.95400746107700
  O   -1.08865056200904      4.03196213619908     -1.95421594865878
  N   -1.20428951901143      1.52099311906634     -1.22354150349973
  C   -1.22645523487200      0.22847972773760     -0.85448085373584
  N   -2.36239577059488     -0.42562404349810     -0.63797538171794
  C   -2.38455510851526     -1.71297780205592     -0.21695829934652
  N   -3.62448978685447     -2.30595678705671     -0.08220997138307
  C   -3.80214994957863     -3.69647682429522     -0.26509926293778
  N   -5.03331818134283     -4.07921470591195     -0.24489943076422
  C   -5.78250065275407     -2.91965660728915     -0.01803053067209
  C   -4.94394863072427     -1.77943392512856      0.06923435356573
  C   -5.47884315309943     -0.49773010268018      0.36611001538832
  N   -4.69395904946330      0.63004575958486      0.53370113849613
  C   -5.16803052015393      1.88954897075451      0.93099090940427
  N   -5.16427566611637      2.96879287494623      0.06124866732312
  C   -5.64009859840824      4.07433421044407      0.72973994201756
  C   -5.97276972138453      3.70200751745644      2.01961904686516
  C   -5.66660443875304      2.31878661934037      2.15316214672046
  H   -5.79053613939208      1.69295260114979      3.03371460508286
  H   -6.38517315947627      4.35646179154234      2.78410167644533
  H   -5.69210293383246      5.03951501836019      0.23244523294059
  C   -4.66170097998268      2.95857532998009     -1.30438608475889
  H   -3.56456114694213      3.05632650076762     -1.34275394900242
  H   -5.11423494186762      3.79529456729328     -1.85437085413286
  C   0.00060905292654     -1.70432933993780     -0.26580532370673
  C   1.17571071692210     -2.41862058592693      0.04125076004814
  C   0.69656721936796     -3.65808528675961      0.60845041493055
  C   -0.69489992520611     -3.65848994157092      0.60791394616904
  C   -1.17431744795286     -2.41921408630550      0.04053934280589
  H   -1.30918992207613     -4.46010802200474      1.01094640584742
  H   1.31101098300924     -4.45935450960125      1.01193954827095
  N   0.00041247642475     -0.42442065719648     -0.69643956766355
  H   -4.94833721645844      2.01901174640611     -1.79906213385344
  H   -3.77014391101029      0.57309413977267      0.10661298853943
  C   -6.88430456251151     -0.45111044188593      0.51435948495853
  C   -7.69882342245276     -1.58181153958149      0.40606030192100
  C   -7.16621375363804     -2.84428958652569      0.14200041976281
  H   -7.77729387208878     -3.74418538666196      0.07444020150458
  H   -8.77685112528514     -1.46299058248308      0.53730708354864
  H   -7.33235871994515      0.51868096617868      0.73255717277230
  H   -2.94716469738889     -4.33344051787256     -0.47368538081083
  H   2.94996738886943     -4.33195964737721     -0.47178622150352
  H   7.77940274929932     -3.74002673307527      0.07949633708182
  H   8.77740410341159     -1.45825888866870      0.54290029575842
  H   7.33169922029613      0.52263689458656      0.73705646449629
  H   3.76987315804403      0.57504530412712      0.10868770104208
  H   3.56397487509454      3.05800864257783     -1.34106749895772
  H   4.94869509250584      2.02149139809073     -1.79635570458452
  H   5.11355169793955      3.79787370182615     -1.85163729142284
