72
Coordinates from ORCA-job ./opt_b3lyp_cdz
  C   7.37220983885930      4.21185428126311      1.26189315501145
  N   7.17142838781350      2.84794926621273      0.80275035551090
  C   8.22735270273023      2.28027746417453      0.09278654880320
  C   9.46850622023373      2.79066590929771     -0.24560480501669
  C   10.21582943442661      1.73893824326524     -0.86862367144830
  C   9.42635369796321      0.62003379978720     -0.89251089727515
  N   8.19409826506042      0.93664682595510     -0.30134836523577
  C   7.20741250619102     -0.03446479756182     -0.02468681900692
  C   5.82784285297487      0.17920136330014     -0.22935794825797
  N   5.17590036306893      1.32598572301983     -0.69003553017847
  C   3.91340009402649      1.02437408661803     -0.71268128897004
  N   3.63904141602369     -0.28236759721902     -0.29941797912187
  C   4.89516897616660     -0.85860653707483      0.00662218245599
  C   5.27437886291764     -2.13226368668199      0.43816222661031
  C   6.64197185861270     -2.32513184553512      0.64339243233753
  C   7.58433678816883     -1.30842771541065      0.42578729562133
  H   8.64032512456196     -1.50044317492583      0.61873158043553
  H   6.99198242079728     -3.30034449972544      0.98861580881970
  H   4.54633396443257     -2.92430534100907      0.58609392207392
  C   2.37499665079266     -0.86548411920865     -0.23811054806250
  N   2.36799189092140     -2.20151206808533     -0.14111273681313
  C   1.22745675866602     -2.89756588281013     -0.08877230345360
  N   1.20939289772992     -4.22836319145829      0.03935308875938
  C   0.00022873101676     -4.80136647127148      0.08963129663084
  N   -1.20896180115867     -4.22837572767803      0.03982438965787
  C   -1.22708460928582     -2.89757639095180     -0.08827985722128
  N   -2.36764031291894     -2.20153128259369     -0.14014416349917
  C   -2.37479291456639     -0.86550060191607     -0.23716923838089
  N   -3.63903408629035     -0.28265756117979     -0.29790128340255
  C   -4.89487879711875     -0.85949629427117      0.00825197613427
  C   -5.82804120260597      0.17804056537170     -0.22700795387280
  N   -5.17669450420026      1.32523511354249     -0.68750146565341
  C   -3.91408540180985      1.02413783598597     -0.71064266722889
  H   -3.12435511428913      1.68351313000321     -1.05554870116200
  C   -7.20747855205187     -0.03625693178532     -0.02206576937242
  N   -8.19466447969469      0.93453809097080     -0.29807241785102
  C   -8.22861224930113      2.27791714412121      0.09689502407478
  N   -7.17298492500520      2.84572335451318      0.80718881283133
  C   -7.37450305762193      4.20923629852338      1.26717728139526
  H   -8.22578926558296      4.24786759452743      1.96648888867318
  H   -6.47485834696969      4.53895466268470      1.80888203539762
  H   -7.57591733585831      4.93721982526840      0.45286295389437
  H   -6.29003240764967      2.72933013272709      0.30454269005607
  C   -9.47005922434348      2.78785077194259     -0.24110538772116
  C   -10.21688456832857      1.73609383752290     -0.86466751559658
  C   -9.42683340709272      0.61761323883201     -0.88925580915680
  H   -9.58101044916288     -0.36130222542245     -1.33202425052344
  H   -11.21912002315916      1.81182042764991     -1.28096659631690
  H   -9.80210055565564      3.80715518696691     -0.06602759029968
  C   -7.58377655678310     -1.31059412308240      0.42788211828747
  C   -6.64094378603470     -2.32700053861341      0.64481011449559
  C   -5.27347665628355     -2.13348434407667      0.43934951436646
  H   -4.54507431093874     -2.92528424476306      0.58680769891556
  H   -6.99046418875169     -3.30250903958419      0.98969430676677
  H   -8.63964000283468     -1.50313291765810      0.62098738907544
  C   -1.17548370282116     -0.09930734355295     -0.27044184240843
  C   0.00011519578254     -0.87888404677275     -0.26321383948213
  C   1.17571729483741     -0.09932350579171     -0.27091997329900
  C   0.69547188121873      1.26289506576706     -0.25301066334356
  C   -0.69517263771961      1.26290703715800     -0.25272610319203
  H   -1.30006039684475      2.16475961722846     -0.20676103026530
  H   1.30044832331182      2.16470447107987     -0.20730354772009
  N   0.00016208731435     -2.22525499896518     -0.17130067745414
  H   0.00025424437148     -5.89176273094063      0.19094521423495
  H   3.12326263945589      1.68328004993044     -1.05758340822982
  H   9.58099463542583     -0.35905245100377     -1.33473980556498
  H   11.21798501017854      1.81494998712088     -1.28506306822969
  H   9.80001391947560      3.81025471483725     -0.07117335826671
  H   6.28852623018277      2.73076074711710      0.30019881693454
  H   8.22349955414296      4.25137823084007      1.96114989425017
  H   6.47240408500627      4.54141737433545      1.80342517352960
  H   7.57319802587352      4.93945075911867      0.44712769151392
