82
Coordinates from ORCA-job ./opt_b3lyp_cdz
  C   -4.16613703012644     -3.78018780447102     -0.97446973494256
  H   -3.28454390962637     -3.79681122096193     -0.31055699422951
  H   -3.84693988178537     -3.42216389941183     -1.96575064349697
  H   -4.53219785010298     -4.81379330146904     -1.07697854153880
  C   -5.25872833288164     -2.87575677038862     -0.39464480194211
  N   -4.72665021432288     -1.51269729291930     -0.32262333559304
  C   -5.49652380275623     -0.38813554359657     -0.15293011319006
  C   -6.90182849998465     -0.41083645517682     -0.31609814118443
  C   -7.70741611060994      0.73603565663568     -0.22394343045835
  N   -9.11294573212514      0.59837476638929     -0.39464281456498
  C   -9.96355543525348      1.47678155499499     -1.05100146790297
  C   -11.21998643197134      0.93204609555594     -0.93481807970518
  N   -11.17875059725973     -0.24733656558105     -0.21910334542614
  C   -9.91100535891530     -0.41804361231130      0.08555651475172
  H   -9.50140015765096     -1.23177530196413      0.68012740100668
  H   -12.15460712799159      1.32259499343271     -1.33290506493815
  H   -9.58882239757996      2.36217491236798     -1.55468589676545
  C   -7.15882034065623      1.99308966583010      0.02793484627015
  C   -5.77207220557671      2.04561581071822      0.18366268528015
  N   -5.01915629591899      3.20016040773417      0.41087965804342
  C   -3.79082776432008      2.80270474732619      0.45162133135805
  N   -3.62475240402616      1.41494281577209      0.28016773517325
  C   -2.38101060577006      0.81269187978079      0.41145105263004
  N   -2.36389756156261     -0.46934055955704      0.82704504921673
  C   -1.22438159676337     -1.13756475672835      1.02884150615888
  N   0.00000135942570     -0.47978286164815      0.87549284048952
  C   -0.00000102666162      0.80371298314766      0.45203091308571
  C   1.17406863981534      1.52050459016235      0.14848476950343
  C   0.69520084813277      2.76177964685459     -0.41749507128275
  C   -0.69504431954165      2.76160820022904     -0.41800472246161
  C   -1.17402466306554      1.52021626926411      0.14762859736475
  H   -1.30923127908486      3.56391269169004     -0.81984460177026
  H   1.30948540429727      3.56423839982934     -0.81887862511254
  C   2.38102967533709      0.81328198589180      0.41320533327464
  N   3.62471590264707      1.41583666709616      0.28286774478271
  C   4.94639558799123      0.89990059608688      0.12642877608597
  C   5.77195739695369      2.04702089408240      0.18811920496118
  N   5.01857652188886      3.20138579747965      0.41470590789285
  C   3.79031139249490      2.80363785275709      0.45443431224605
  H   2.93247665013977      3.43543855609625      0.66618549512658
  C   7.15884843641138      1.99483771210944      0.03356585875909
  C   7.70795862470508      0.73791825477015     -0.21784260720945
  N   9.11366643619322      0.60059711960543     -0.38734756726600
  C   9.91156436879492     -0.41562238607466      0.09353833987043
  N   11.17952693928756     -0.24460703192620     -0.21004175208147
  C   11.22108451467378      0.93478091701863     -0.92572910672855
  C   9.96461966770893      1.47920748823342     -1.04298778115829
  H   9.59009898065910      2.36450601116876     -1.54699686067441
  H   12.15594831578834      1.32555599108025     -1.32302238567875
  H   9.50165137686792     -1.22945166854073      0.68776339172325
  C   6.90272436804325     -0.40914002921010     -0.31070357854151
  C   5.49727800895026     -0.38679932159030     -0.14875392155590
  N   4.72786992620910     -1.51155425802942     -0.31927821778362
  C   5.26044337367605     -2.87446435177861     -0.39091485064666
  H   6.10528316242744     -2.86838186004489     -1.10049586833985
  C   4.16861869436991     -3.77918214471748     -0.97173743873004
  H   4.53507352023897     -4.81267244348002     -1.07399382084164
  H   3.28645279778236     -3.79611154514353     -0.30859531843456
  H   3.85020817363047     -3.42115607310001     -1.96326934032403
  C   5.75202560392432     -3.39101415902548      0.97162537959970
  H   6.51894581497816     -2.72882903494069      1.40289110639152
  H   6.18773861931124     -4.39939645130530      0.87451039168100
  H   4.91202861482097     -3.44733504760903      1.68443332794253
  H   3.81071264426259     -1.44108086865126      0.12628234219567
  H   7.38623345121698     -1.35293431560858     -0.55275912798237
  H   7.76196008121184      2.89620892004910      0.12739176469639
  N   2.36392452315319     -0.46873985653332      0.82883213995279
  C   1.22443872983247     -1.13725232231386      1.02977322251063
  N   1.20876299041931     -2.43221692957295      1.37239555748091
  C   0.00007436384955     -2.98826859063893      1.52416421174307
  N   -1.20863930358551     -2.43252339815029      1.37147701470830
  H   0.00010128121447     -4.04674662157125      1.80392618290753
  C   -4.94618229047307      0.89870104344840      0.12266312166100
  H   -2.93332257871628      3.43470879102296      0.66409085602846
  H   -7.76223040813785      2.89431458104138      0.12124873266878
  H   -7.38489926935499     -1.35476506262969     -0.55851633729625
  H   -3.80987148957009     -1.44188956947968      0.12366888938062
  H   -6.10301235607950     -2.86999431967316     -1.10489263828903
  C   -5.75134148768571     -3.39241311474366      0.96752083824846
  H   -6.51878618187052     -2.73036946381348      1.39806509986319
  H   -4.91189138045636     -3.44847335542977      1.68099067860376
  H   -6.18669899170967     -4.40090178363097      0.86998477658625
