80
Coordinates from ORCA-job ./opt_b3lyp_cdz
  C   -4.56453108614664     -4.02855949804348     -0.17924395993732
  H   -3.65666799817484     -3.83631158749444      0.40000140856598
  H   -4.52157721778662     -4.91510794054644     -0.81598200117397
  C   -5.31355141774618     -2.83064943175478     -0.69840325393225
  N   -4.74364749993425     -1.53708091325024     -0.46796904739301
  C   -5.50095158930600     -0.41462523080069     -0.23431940324723
  C   -6.90603947952578     -0.44228786328491     -0.37862725698416
  C   -7.71976320520334      0.69165034282340     -0.21394382908980
  C   -7.16643201151971      1.93660966994743      0.09495248585592
  C   -5.77818315591965      1.99013796186734      0.23098295575438
  N   -5.02620493994589      3.13499701309648      0.51157685163495
  C   -3.79573570368446      2.74289645730017      0.51490529464496
  N   -3.62525660401700      1.36628638044256      0.26557136554173
  C   -4.94657256540444      0.85437778273079      0.09591563481263
  C   -2.38208528292973      0.75915573354401      0.35229521226900
  N   -2.36377102519522     -0.55029522548204      0.67703206600243
  C   -1.22458835619252     -1.22850314030532      0.83762316552536
  N   -0.00012068378986     -0.56306313178365      0.72694273064021
  C   -0.00002614164462      0.74609123036454      0.38906937649314
  C   1.17416713232516      1.48177528243870      0.13554082709472
  C   0.69526236649178      2.75908975635264     -0.34309484165446
  C   -0.69511195012415      2.75926982281276     -0.34279594249034
  C   -1.17413996500504      1.48206375460438      0.13600550929464
  H   -1.30901011574801      3.58721555950453     -0.68909091693454
  H   1.30922435506911      3.58687928359517     -0.68964939780560
  C   2.38202046181449      0.75857251966925      0.35136066353753
  N   3.62530630688798      1.36539646916137      0.26413874026125
  C   4.94643367730880      0.85315625782516      0.09401230484707
  C   5.77837693419060      1.98870929611562      0.22877155445718
  N   5.02678707744095      3.13375722082730      0.50963597886557
  C   3.79622142212892      2.74196529593140      0.51340905837093
  H   2.93944844322697      3.36622490238085      0.74974409771327
  C   7.16656204653437      1.93483548382820      0.09223200581702
  C   7.71946935058430      0.68973887798874     -0.21687142187436
  N   9.12378509539090      0.55780590135650     -0.37427375955469
  C   9.96609570881178      1.51189703797954     -0.92244289417784
  C   11.25352854328362      1.01970959389591     -0.90022659420796
  C   11.20191304204857     -0.28089853356175     -0.31059684904988
  C   9.88356040769124     -0.53978082348822     -0.00143287848045
  H   9.42274234117938     -1.38765358204472      0.49605220629774
  H   12.03961902295539     -0.94875245252093     -0.12198069738517
  H   12.13483256457558      1.53423773808412     -1.27685039849464
  H   9.56514089327303      2.43919141205344     -1.32017793670592
  C   6.90540188151853     -0.44399483335753     -0.38126251609087
  C   5.50037452847443     -0.41598277002641     -0.23643379211953
  N   4.74270468858361     -1.53824731228787     -0.46981434664571
  C   5.31220013231530     -2.83196227277599     -0.70044360443986
  H   5.80531380655278     -2.93994660579265     -1.67389780017272
  C   4.56311505423203     -4.02967508428826     -0.18091921714603
  H   3.65554189728005     -3.83718805194662      0.39869961956992
  H   4.51968439287571     -4.91623724476597     -0.81760569864418
  C   5.88948224102470     -3.65165143118585      0.44303189254653
  H   5.86671351888672     -3.19863445159431      1.43698666263318
  H   6.76022603187382     -4.28083382913553      0.23964247242345
  H   3.80250126200540     -1.50527096043236     -0.07786533713492
  H   7.37333983157154     -1.38652557394803     -0.65724328008310
  H   7.77069761618315      2.82713655104676      0.24571484246006
  N   2.36351283292591     -0.55087593232400      0.67609481980397
  C   1.22422669389001     -1.22880464171624      0.83713630528191
  N   1.20800953468216     -2.54297762935607      1.10043431964405
  C   -0.00033632174730     -3.10700904569549      1.21890143233022
  N   -1.20859002161445     -2.54268073849531      1.10091448152835
  H   -0.00042482999198     -4.18033458275276      1.43479504493444
  H   -2.93872038272567      3.36693850433612      0.75093823753996
  H   -7.77028857482496      2.82906139453631      0.24865672283832
  N   -9.12416956098292      0.56006743698287     -0.37082944634734
  C   -9.96644127459330      1.51436570307565     -0.91869748279427
  C   -11.25398929044129      1.02250075974822     -0.89600807116745
  C   -11.20248350185169     -0.27811738412305     -0.30639112044705
  C   -9.88408292839201     -0.53732712394756      0.00229449412679
  H   -9.42329763043041     -1.38531240287814      0.49961812778810
  H   -12.04028699821768     -0.94576163621472     -0.11746623423917
  H   -12.13530179728864      1.53724769811230     -1.27231288102076
  H   -9.56539978537108      2.44155685521462     -1.31658571091245
  H   -7.37431585985273     -1.38470421662540     -0.65442324842307
  H   -3.80329059751981     -1.50433987017956     -0.07636784751310
  H   -5.80710549948679     -2.93847396143973     -1.67165159000914
  C   -5.89054469294060     -3.65024687517500      0.44528496938561
  H   -6.76152272848850     -4.27921585090512      0.24223899926879
  H   -5.86724500681777     -3.19727480273563      1.43924785706413
