84
Coordinates from ORCA-job ./opt_b3lyp_cdz
  C   -4.17308746762253     -3.80862236662442     -0.95251130904803
  H   -4.53970410899480     -4.84310569796214     -1.04483143209577
  H   -3.85920343381323     -3.45827112370878     -1.94822948086892
  H   -3.28770741616420     -3.81991509404305     -0.29352384380115
  C   -5.26207820207533     -2.89886435826405     -0.37399648498121
  N   -4.72910785340151     -1.53610762905409     -0.31580699859793
  C   -5.49953265182148     -0.41027602222922     -0.14484202214369
  C   -6.90473619508376     -0.43351116633979     -0.30258965519767
  C   -7.71397718594768      0.71241530807642     -0.21435780996742
  C   -7.15970149042399      1.96951610698277      0.03348484083042
  C   -5.77302402470165      2.02232228431582      0.18461628977037
  N   -5.01947319365352      3.17803296784568      0.40823778177103
  C   -3.79098488002217      2.78133480935840      0.44724703172665
  N   -3.62449238296831      1.39278042105348      0.27914734475150
  C   -4.94651903665075      0.87604679539260      0.12531524305730
  C   -2.38140258430655      0.79174191341619      0.41151461310759
  N   -2.36361867283123     -0.49042107321106      0.82875374150461
  C   -1.22425100884624     -1.15783024988755      1.03133091673064
  N   0.00033497099175     -0.50068510268892      0.87707061847064
  C   0.00027798113409      0.78269460942551      0.45195149277048
  C   1.17428470002361      1.49866602113067      0.14656776806382
  C   0.69538597546721      2.73889281925300     -0.42130197739829
  C   -0.69505504113835      2.73886955778757     -0.42117531340059
  C   -1.17380747430593      1.49862612576343      0.14678195820744
  H   -1.30948824975529      3.54041017188068     -0.82416225895581
  H   1.30971822350608      3.54045447274413     -0.82440036194931
  C   2.38194786795642      0.79181673614143      0.41108255064151
  N   3.62499947685325      1.39288156127759      0.27848363245704
  C   4.94700288633743      0.87616679830382      0.12441217550403
  C   5.77350241057489      2.02245454770362      0.18352602763782
  N   5.01997703516769      3.17815841165071      0.40727086397726
  C   3.79150206992998      2.78144084853536      0.44652961655672
  H   2.93373892637571      3.41403600857930      0.65610283850710
  C   7.16015150862496      1.96966285150383      0.03212825736023
  C   7.71439573035030      0.71256207519381     -0.21578845650559
  N   9.11726966173855      0.57899709156116     -0.38780530401385
  C   9.94198389748044      1.50048451689947     -1.01286080954699
  C   11.23368859424514      1.01987163233432     -0.98163806804766
  C   11.20315000061014     -0.23913829092986     -0.30679755464990
  C   9.89250254506901     -0.48613444692427      0.04267344500379
  H   9.44862856968418     -1.30210528503912      0.60472332371077
  H   12.04940024891703     -0.88716585741846     -0.08937321584452
  H   12.10388482474180      1.51463228388972     -1.40735798811874
  H   9.52605622395728      2.39637618397974     -1.46369134831349
  C   6.90515260536153     -0.43337810681983     -0.30382890881908
  C   5.49998005064892     -0.41015673537537     -0.14580626854414
  N   4.72953467849427     -1.53600392718813     -0.31656887712580
  C   5.26250789137695     -2.89875653491670     -0.37480530630047
  H   6.11070316708631     -2.89845929764517     -1.08043370297096
  C   4.17341137397334     -3.80855053136441     -0.95306248942442
  H   4.54001697267283     -4.84303469474315     -1.04540874769228
  H   3.85932688381089     -3.45824716696428     -1.94873434218625
  H   3.28816213376045     -3.81982051824951     -0.29389885068633
  C   5.74840638014453     -3.40514242861315      0.99383117252380
  H   6.51242686680141     -2.73837816409031      1.42319811680944
  H   4.90506171243709     -3.45676292076731      1.70309687356094
  H   6.18537225949746     -4.41403982921892      0.90647752780996
  H   3.81247708345857     -1.46352426168930      0.12892368640755
  H   7.38734089824440     -1.37875594973680     -0.54171238825312
  H   7.76089093732465      2.87216314541070      0.12844730919778
  N   2.36427917854323     -0.49034858079495      0.82831957618556
  C   1.22497056693524     -1.15779310697651      1.03110528322209
  N   1.20923757982307     -2.45264110230601      1.37605116390288
  C   0.00043419070421     -3.00778677856611      1.52923795288781
  N   -1.20841443204364     -2.45267752768563      1.37627416449872
  H   0.00047616423739     -4.06585936028827      1.81083391363141
  H   -2.93319107391295      3.41394024753553      0.65666571347141
  H   -7.76043435901125      2.87200605878090      0.12994113509701
  N   -9.11688264170341      0.57883759012043     -0.38610834789637
  C   -9.89202035210870     -0.48631417461373      0.04449159785047
  C   -11.20273741961062     -0.23932532641442     -0.30472346079330
  C   -11.23342005419368      1.01970068691361     -0.97952749160180
  C   -9.94172722160785      1.50033030197503     -1.01098415227104
  H   -9.52589599401484      2.39623803702143     -1.46187185368482
  H   -12.10370334978605      1.51446100892012     -1.40506975260080
  H   -12.04893829004375     -0.88736852689946     -0.08715359504756
  H   -9.44802986397930     -1.30229346480422      0.60643698610168
  H   -7.38695945589272     -1.37888682410756     -0.54041106842300
  H   -3.81196826787081     -1.46363901805607      0.12951827732116
  H   -6.11041439162739     -2.89854650055721     -1.07945519014683
  C   -5.74769628225398     -3.40531392057890      0.99471599762813
  H   -6.18466764184784     -4.41421283183692      0.90740815050018
  H   -6.51163837871584     -2.73857597093316      1.42426350690804
  H   -4.90420834463462     -3.45695383472300      1.70381021236661
