82
Coordinates from ORCA-job ./opt_b3lyp_cdz
  C   -5.74360474110211     -3.35128244788595     -1.09749271644283
  H   -4.90550739286643     -3.37656442359982     -1.81455961772181
  H   -6.17370889516256     -4.36500816038382     -1.03633098045684
  H   -6.51688796681039     -2.67817758099718     -1.49889550120651
  C   -5.25051332629386     -2.88385070845324      0.28217628908132
  N   -4.71732149915475     -1.51985510306258      0.25842197843369
  C   -5.49092101288614     -0.38987399584813      0.14868957562851
  C   -6.89540980835876     -0.43044278455749      0.29855696661935
  C   -7.70183382494881      0.71710647931852      0.28218183692591
  N   -9.10591377251160      0.55455719375465      0.44830831211341
  N   -9.61081923198423     -0.61986014404237      0.89995693369506
  C   -10.92808179975769     -0.44144500247617      0.92933911196192
  C   -11.29535117206542      0.85649634072304      0.49363599599910
  C   -10.09490334053937      1.46712234281265      0.18991550843678
  H   -9.87579962820274      2.45525963842154     -0.20099400193306
  H   -12.29025989440413      1.28431026752333      0.40624295400513
  H   -11.56992993313545     -1.25408728282972      1.26626340954532
  C   -7.15793202633753      1.99049941408317      0.10446552387145
  C   -5.77476980424654      2.05282047722426     -0.07183743183552
  N   -5.02625049678355      3.22198508311074     -0.23286269102537
  C   -3.79617826793712      2.83214721869220     -0.29815145174288
  N   -3.62502052842467      1.43769252426738     -0.20452172765725
  C   -4.94411613194151      0.90866059704400     -0.07250053312912
  C   -2.38166749103537      0.84626045777814     -0.37353329879251
  N   -2.36453989393775     -0.41117585712320     -0.85963904135225
  C   -1.22516853542058     -1.06670638979086     -1.09824238153522
  N   -0.00039564397845     -0.41852231683170     -0.91013628280019
  C   -0.00024116667435      0.84070187183306     -0.41800721865585
  C   -1.17408592718342      1.53924456484338     -0.07419145565441
  C   -0.69510496171932      2.74774476946785      0.55820738295278
  C   0.69545204669580      2.74781626303344      0.55749851740900
  C   1.17388981824405      1.53938752132637     -0.07543099897806
  C   2.38123629344713      0.84657316390276     -0.37602663462396
  N   2.36380640884094     -0.41087955301239     -0.86207252337780
  C   1.22426343271397     -1.06655455335180     -1.09949826211568
  N   1.20831396813296     -2.34126812456283     -1.51241484132222
  C   -0.00065051060435     -2.88752463382912     -1.69390765601303
  N   -1.20949607902437     -2.34142733026789     -1.51115764232509
  H   -0.00075740171132     -3.92929285137570     -2.03089525365576
  N   3.62467261131821      1.43828551534913     -0.20843111300957
  C   3.79542225490215      2.83275065416011     -0.30238810164972
  N   5.02546292198402      3.22288347717156     -0.23816412465237
  C   5.77437163683432      2.05393410512719     -0.07748556756080
  C   4.94397760605457      0.90957012023031     -0.07722350669819
  C   5.49131132425638     -0.38880497425186      0.14360511990764
  N   4.71817471374983     -1.51905372433411      0.25426230928265
  H   3.80803585691943     -1.42952130361122     -0.20141810840288
  C   5.25194672201820     -2.88285331961292      0.27676511651540
  H   6.09776390260865     -2.89906559431954      0.98419931484548
  C   4.16030355391270     -3.80875499791211      0.82388346082730
  H   4.52658723743863     -4.84549117140679      0.88837707611590
  H   3.27780786659380     -3.80181407086636      0.16071386872792
  H   3.84131354437005     -3.48720801184820      1.82770733684943
  C   5.74421785503755     -3.34936978206707     -1.10355740438716
  H   4.90543662777109     -3.37555671242897     -1.81979181486521
  H   6.51626733068206     -2.67525743538171     -1.50563697507167
  H   6.17566062481759     -4.36256492710045     -1.04301354261464
  C   6.89592966314705     -0.42900077839636      0.29233900426136
  C   7.70206656332802      0.71874242003305      0.27510745319947
  N   9.10632375943146      0.55655194737985      0.44012395072700
  N   9.61188065157086     -0.61777015035559      0.89128743792097
  C   10.92911475125384     -0.43899623038390      0.91974132142105
  C   11.29572060435085      0.85903842511211      0.48376231937626
  C   10.09488174925998      1.46938637108223      0.18103367803770
  H   9.87523326747385      2.45749895939971     -0.20962754067671
  H   12.29045096112781      1.28710655864869      0.39560927415743
  H   11.57142479080005     -1.25148959023243      1.25614334785849
  C   7.15770127222720      1.99195995719693      0.09764403613044
  H   7.73996428097130      2.91061119030068      0.12116087710564
  H   7.39954063623851     -1.37925464720804      0.44318717051387
  H   2.94045238505578      3.47821169295427     -0.48210257508224
  H   1.31018290137060      3.52679450752249      1.00216645136216
  H   -1.30943222039636      3.52666779561343      1.00353068894907
  H   -2.94150908345777      3.47784712402835     -0.47842835980874
  H   -7.74039845437871      2.90900262526342      0.12871454611914
  H   -7.39866606481641     -1.38085369545303      0.44963169186101
  H   -3.80767635563113     -1.43002143606798     -0.19818285411240
  H   -6.09583028006189     -2.89988366718723      0.99021071200666
  C   -4.15809997152117     -3.80898854415755      0.82908436030088
  H   -3.83819761981959     -3.48644024614459      1.83229310714549
  H   -4.52405639273403     -4.84576020575884      0.89488610154027
  H   -3.27624699800870     -3.80244563257570      0.16505282326800
