80
Coordinates from ORCA-job ./opt_b3lyp_cdz
  C   -5.47321262664228     -3.62222286018223      2.15912843096676
  C   -5.44538746876616     -2.11242776829050      2.10974089660113
  H   -6.35815370541631     -1.60297429074880      1.79432397536539
  H   -4.84060982516033     -1.57002177996409      2.83956290462801
  C   -4.70920972752822     -2.91834615265985      1.06521608822338
  N   -5.21997155816299     -2.96147711564688     -0.28060953803335
  C   -5.69376144765377     -4.08165164811231     -0.93409532474875
  C   -5.98777327417989     -3.73801036239506     -2.23908693123354
  C   -5.65308833164508     -2.36223337310941     -2.40317265794112
  C   -5.17811445115183     -1.90532610989216     -1.18516219357159
  N   -4.67564902268911     -0.64602228971676     -0.82059926287225
  C   -5.47202848808263      0.45841786705630     -0.55044082531081
  C   -6.87382565251269      0.42662011492648     -0.71723025382696
  C   -7.68910726247110      1.54718358071308     -0.51781261782369
  C   -7.15827171734152      2.77859521192474     -0.13728451931254
  C   -5.77471733531507      2.83722612311979      0.04424622438029
  N   -5.02439520839332      3.96714422617062      0.38391797213804
  C   -3.79428610246757      3.57501240391721      0.38518494323218
  N   -3.62153060317200      2.20850685492223      0.08000242243144
  C   -4.93919806136894      1.70624713113258     -0.13443840233525
  C   -2.38222314099979      1.59526454063084      0.17839503115339
  N   -2.36641601311519      0.28819093015305      0.51930672348424
  C   -1.22610633568735     -0.38560925923598      0.69408067382535
  N   -1.20724785694510     -1.69391999975789      0.98771508491268
  C   0.00142175571475     -2.25365741561528      1.11904778151848
  N   1.20928203427133     -1.69185335673361      0.98910861961941
  C   1.22623509368815     -0.38350922230006      0.69550081698641
  N   2.36558606189823      0.29225182207689      0.52206708491680
  C   2.37954520208450      1.59935311598779      0.18118336784570
  N   3.61791841415283      2.21469449637867      0.08420488741584
  C   3.78805242813409      3.58147405041387      0.38962925603673
  N   5.01750732154038      3.97566051582054      0.38971772676133
  C   5.77008603940506      2.84700627026887      0.05083132378034
  C   4.93665086061047      1.71464078530973     -0.12877030601798
  C   5.47198756723862      0.46770640539594     -0.54421357654670
  N   4.67770481289550     -0.63803950483914     -0.81521445718290
  C   5.18260917090137     -1.89648632621201     -1.17937429939816
  C   5.65947630781719     -2.35252378570167     -2.39697043036048
  C   5.99629203903136     -3.72775270782126     -2.23265780931253
  C   5.70161935492811     -4.07196955406271     -0.92796626199434
  N   5.22537222313066     -2.95262329223604     -0.27484783989731
  C   4.71327848870853     -2.91043561542982      1.07050300877022
  H   3.62022676331798     -2.91432971791198      1.13403094104980
  C   5.47744228073633     -3.61312386068728      2.16506928063398
  H   4.89453315396708     -4.12896161589557      2.93113591369983
  H   6.41445687088196     -4.10358601958364      1.89360094521259
  C   5.44714150889826     -2.10337404027399      2.11577276745243
  H   6.35934596637303     -1.59236201408173      1.80125227024227
  H   4.84078438138795     -1.56204394474680      2.84508298009429
  H   5.77730286171169     -5.02250746375399     -0.40771046669197
  H   6.40248314779988     -4.39491831853336     -2.98959186355180
  H   5.74743291471605     -1.75029122725697     -3.29814154542408
  H   3.77899730911243     -0.62445112717272     -0.33013520995875
  C   6.87400978404597      0.43824008251124     -0.70951743518470
  C   7.68721395569713      1.56015595198520     -0.50921213336788
  C   7.15392955424292      2.79067790029679     -0.12922249045071
  H   7.76325663452136      3.68325808348551      0.01228802535687
  H   8.76406025450103      1.45823331103778     -0.66331483453812
  H   7.32292690093034     -0.50504760186910     -1.02244214524437
  H   2.93067416151569      4.19077904648399      0.66222216010623
  C   1.17129652802440      2.31885487245728     -0.03403021569601
  C   -0.00135028340823      1.58331569635515      0.22273720373168
  N   -0.00043303854931      0.27773969836097      0.57214846709459
  C   -1.17495762416353      2.31683405905914     -0.03542150304533
  C   -0.69769654991013      3.59358560413787     -0.51838616810912
  C   0.69241243496383      3.59478076336735     -0.51756813722049
  H   1.30853634730768      4.42118417055894     -0.86397247690135
  H   -1.31483031222958      4.41892741591899     -0.86552327621154
  H   0.00219574609553     -3.32177836514165      1.35932401312673
  H   -2.93822947673094      4.18576144515350      0.65869311942612
  H   -7.76922956372257      3.67016624328004      0.00355574492083
  H   -8.76561738673638      1.44347008868700     -0.67306469796011
  H   -7.32084100142585     -0.51741704351311     -1.03061233486009
  H   -3.77744117621148     -0.63091526573039     -0.33463742528770
  H   -5.74119683714275     -1.76020878420568     -3.30446804618283
  H   -6.39213884182828     -4.40590005141236     -2.99635980620461
  H   -5.76834639070044     -5.03228079033879     -0.41384695603402
  H   -3.61621232629653     -2.92040457070127      1.12976249746285
  H   -4.89014957689119     -4.13702605117904      2.92577394974215
  H   -6.40915711248352     -4.11427255681197      1.88684154999970
