84
Coordinates from ORCA-job ./opt_b3lyp_cdz
  C   -4.44634082442880     -3.32604602815483      2.16894957549559
  H   -4.37242030456008     -3.08204095111491      3.24164100106280
  H   -3.46603929002763     -3.13576264837830      1.70607537060896
  H   -4.67884707597415     -4.40036544731741      2.08096954356957
  C   -5.53272171573533     -2.46721479448260      1.50913966895278
  N   -5.62636859988854     -2.74384146242958      0.06724025800224
  C   -6.07438303155353     -3.91622447265714     -0.49958513001505
  C   -5.99077257866028     -3.80774732652662     -1.87590701015558
  C   -5.45921528465445     -2.52034536927701     -2.16549192893245
  C   -5.24027746018676     -1.88150216555384     -0.95613844319322
  N   -4.70531863436778     -0.60573631997481     -0.70711758839355
  C   -5.48001717083156      0.53618601562072     -0.56352896765398
  C   -4.94112548626617      1.81034817142657     -0.24543764320458
  N   -3.62311175321152      2.32266125084340     -0.04706964857048
  C   -3.79374111655148      3.70799849926787      0.15269333713138
  N   -5.02095948774563      4.10533745640641      0.09860546771760
  C   -5.77178146032399      2.95711649765571     -0.17053188321455
  C   -7.15201215104389      2.89551341024785     -0.37432609405993
  C   -7.68664340410975      1.64337876935007     -0.67202886562313
  C   -6.87819954369425      0.50428358228097     -0.76183696543387
  H   -7.32748029178809     -0.45792288474803     -1.01039414497706
  H   -8.76004956260054      1.53701525463526     -0.84571278385698
  H   -7.75694287955760      3.80007134242661     -0.31272956277227
  H   -2.93972155729891      4.33383941232979      0.39611089825393
  C   -2.38315499558591      1.71748159830189      0.08843632547333
  N   -2.36758699695581      0.42979369258712      0.49291667020388
  C   -1.22717825901860     -0.23667176204364      0.69939660535050
  N   -0.00189962969672      0.42100944851830      0.54914309629992
  C   -0.00178575806494      1.70845330425184      0.13783954473862
  C   -1.17512046621636      2.42806934086095     -0.15913265056114
  C   -0.69638459390216      3.67700750249904     -0.70859258525221
  C   0.69365583280199      3.67739274254096     -0.70700414972809
  C   1.17182771956801      2.42871147165427     -0.15646764437422
  C   2.37968489657845      1.71878206085032      0.09384531262515
  N   3.61962186978142      2.32462067159776     -0.03888279343146
  C   3.78905173695656      3.71007062326333      0.16109310738751
  N   5.01616666808124      4.10808138884532      0.10963356816739
  C   5.76820775977962      2.96024126042784     -0.15771569694678
  C   4.93835034045315      1.81300215432254     -0.23427714344261
  C   5.47865634740199      0.53907927068097     -0.55091744653411
  N   4.70493860883783     -0.60332968012301     -0.69594852474062
  C   5.24124853021715     -1.87890609437096     -0.94305751030985
  N   5.62562716985349     -2.74040559794680      0.08167191504931
  C   6.07558231073973     -3.91285225617743     -0.48347694327445
  C   5.99489406022570     -3.80524860983668     -1.86004267639296
  C   5.46320952076997     -2.51833186367233     -2.15155100835019
  H   5.25819219998532     -2.08756797320318     -3.12875843957394
  H   6.28305471643073     -4.57290673328448     -2.57471005278445
  H   6.41490367778674     -4.73914309787131      0.13523255048686
  C   5.52867920542541     -2.46297278538876      1.52320016699888
  C   6.89279180653936     -2.61025020274207      2.20718600075647
  H   7.24658065193916     -3.65426229919820      2.18697769389911
  H   7.64908755975548     -1.97967534729985      1.71498036073200
  H   6.81960001246427     -2.30269295216137      3.26278631027057
  H   5.22099658579456     -1.40919509587520      1.59094670769887
  C   4.44111801151404     -3.32178956486815      2.18108805211718
  H   3.46178026515282     -3.13210104450749      1.71592959220230
  H   4.67417552545811     -4.39608050601377      2.09421483251643
  H   4.36473801322340     -3.07721889673221      3.25347882941622
  H   3.78094454843564     -0.54651544668201     -0.26541162881600
  C   6.87729127782876      0.50792231551192     -0.74613538409239
  C   7.68490281460790      1.64748120285084     -0.65475186149556
  C   7.14891886073161      2.89936985659727     -0.35844629616853
  H   7.75321028672084      3.80427237600146     -0.29564838032129
  H   8.75874899958655      1.54168143482466     -0.82604338992639
  H   7.32765347568231     -0.45408384839652     -0.99351013519301
  H   2.93416077451230      4.33546866445952      0.40257889522780
  N   2.36390406852235      0.43109268212360      0.49831059468259
  C   1.22339312755979     -0.23599453009529      0.70220152959303
  N   1.20627052916607     -1.52924248221292      1.05136578259735
  C   -0.00196045230220     -2.08460659311070      1.20543661642653
  N   -1.21014302811240     -1.52991532159069      1.04858018165123
  H   -0.00199517163947     -3.14112587264400      1.49201548044986
  H   1.30932004038512      4.48430804373294     -1.09715258289997
  H   -1.31160591784313      4.48358091905002     -1.10014395898718
  H   -3.78234209847748     -0.54853010797994     -0.27445849596531
  H   -5.25231423401188     -2.08888199215225     -3.14199329963712
  H   -6.27691071978401     -4.57515472660813     -2.59165569090437
  H   -6.41454941113052     -4.74309111876495      0.11788899254510
  H   -5.22554826389154     -1.41337098425760      1.57817909201005
  C   -6.89829964699444     -2.61534356689156      2.19001498101553
  H   -7.25170847912371     -3.65945534111705      2.16837983424113
  H   -7.65370523741712     -1.98470603816833      1.69652518124195
  H   -6.82754363021753     -2.30841404153977      3.24596410799386
