86
Coordinates from ORCA-job ./opt_b3lyp_cdz
  C   4.21977991631103      3.50276341758370     -1.07071330610017
  H   3.87416291775120      3.11111643195307     -2.04045395583024
  H   4.61278044480579      4.51963551355679     -1.22650606886583
  H   3.35265547183325      3.58053732745473     -0.39258795375681
  C   5.30239216489771      2.59752778784066     -0.47329193590617
  N   4.75760693573909      1.24049293723568     -0.36708470388141
  C   5.51191588826986      0.11277088860084     -0.16060001500372
  C   6.91941932253537      0.12362438254974     -0.31542232970820
  C   7.72554968768957     -1.01857602893530     -0.18520232427258
  C   7.16575597527955     -2.26549023526563      0.10569825676293
  C   5.78002498227801     -2.30774292732072      0.25321264393473
  N   5.02690302515310     -3.45594489500364      0.51897326158011
  C   3.79895948131101     -3.06205693644118      0.54001717004765
  N   3.62950802011758     -1.67856812502001      0.31915423627272
  C   4.95340613198460     -1.16393081186314      0.14913352431807
  C   2.38597375003761     -1.08254568230401      0.40890643355676
  N   2.36119364661018      0.23004372835729      0.73195678834171
  C   1.22549840201646      0.90328062176905      0.87959257124040
  N   1.20428815998100      2.22707550262529      1.10821185226444
  C   -0.00014249401545      2.76122232844792      1.19575599573743
  N   -0.00013730966763      4.27391094886808      1.40791904224226
  O   1.08961644612740      4.81256539195848      1.48055428003271
  O   -1.08989182591289      4.81236263526885      1.48202360941770
  N   -1.20458191071225      2.22708633988963      1.10826095144747
  C   -1.22581360929760      0.90329482409271      0.87962754688241
  N   -2.36152072815252      0.23007352652847      0.73201368337399
  C   -2.38633211427083     -1.08251241999094      0.40895298857237
  N   -3.62987082835177     -1.67853577390321      0.31925491933741
  C   -4.95379436228118     -1.16393046209141      0.14927134863923
  C   -5.78037583237535     -2.30777027454270      0.25338067865230
  N   -5.02721135032875     -3.45595409266982      0.51909548474447
  C   -3.79927928369398     -3.06203347963552      0.54009360876081
  H   -2.94283258827397     -3.68785257835584      0.77294072721141
  C   -7.16611544032743     -2.26556544388818      0.10593267075649
  C   -7.72596799207016     -1.01867033044280     -0.18493024008246
  N   -9.12875125783285     -0.89620765249914     -0.35551810597423
  C   -9.90403537078925      0.18920178929049      0.02273682007321
  C   -11.21540277897753     -0.07760929388562     -0.30719667100285
  C   -11.24714679474783     -1.37009701287050     -0.91606759237181
  C   -9.95544346044893     -1.85029219641466     -0.92827136467858
  H   -9.54095645569329     -2.76768796619458     -1.33488705325283
  H   -12.11860991193086     -1.88713128438244     -1.31157758197944
  H   -12.06171045865611      0.57945583613454     -0.11935334961347
  H   -9.45976564596417      1.03394475031721      0.54007066058578
  C   -6.91988348527743      0.12355726759232     -0.31518141377602
  C   -5.51237131806464      0.11275520283576     -0.16042838311856
  N   -4.75813324495646      1.24051558437876     -0.36694743674743
  C   -5.30299291537974      2.59752454995442     -0.47309682371569
  H   -6.14528479587956      2.56430926597830     -1.18511812619186
  C   -5.80455296416671      3.14169194277422      0.87501265787590
  H   -6.25215298742937      4.14163558981089      0.74959758376176
  H   -6.56379705273150      2.48120042477455      1.32226210495767
  H   -4.96660531870535      3.23067292530835      1.58659013500909
  C   -4.22045233082092      3.50282796696777     -1.07054511068139
  H   -3.87486426793990      3.11122752043041     -2.04031506596672
  H   -4.61350422154213      4.51968829285514     -1.22628390901198
  H   -3.35329854012709      3.58061014132131     -0.39245697364356
  H   -3.82826953235215      1.18912344688101      0.05052250704966
  H   -7.40439991829978      1.05939225423380     -0.58308939467216
  H   -7.76255996399258     -3.16623429633778      0.23807392236420
  C   -1.17623290794460     -1.80619212054578      0.19478170788758
  C   -0.00017791281326     -1.07232654412061      0.45164791180025
  N   -0.00016354770289      0.23794964261061      0.77967474448101
  C   1.17586140148229     -1.80620945487686      0.19476107701616
  C   0.69564353102103     -3.07949896398421     -0.28947934572261
  C   -0.69604068887978     -3.07949056464041     -0.28946202799542
  H   -1.30816120281411     -3.90685202599418     -0.64005919828892
  H   1.30774764828351     -3.90686766508589     -0.64008978346040
  H   2.94253684507123     -3.68789526112718      0.77290297081361
  H   7.76223969799190     -3.16613694945883      0.23781603257013
  N   9.12832074803532     -0.89606453260398     -0.35585643942704
  C   9.95502163182426     -1.85012442453838     -0.92863836842852
  C   11.24670811711971     -1.36988248530095     -0.91649736098739
  C   11.21494490331829     -0.07738962016678     -0.30763801663346
  C   9.90358276833265      0.18937689280495      0.02235283290390
  H   9.45930565525669      1.03410874283224      0.53969885905633
  H   12.06123725298913      0.57970818171579     -0.11983968247805
  H   12.11817214548174     -1.88688916948727     -1.31204157985283
  H   9.54054990244228     -2.76753918117207     -1.33522631616512
  H   7.40389041591094      1.05947492058430     -0.58335664656021
  H   3.82778406279860      1.18906795353564      0.05047275580059
  H   6.14465129947597      2.56433447538221     -1.18535212107085
  C   5.80398912679363      3.14174998973869      0.87478107515194
  H   6.56328722978065      2.48130623722966      1.32200885895636
  H   6.25153228271524      4.14171339153321      0.74932313070178
  H   4.96607053724205      3.23070430018090      1.58639527093488
