85
Coordinates from ORCA-job ./opt_b3lyp_cdz
  C   5.77048126409567      3.28302048852969     -0.79971446806576
  H   6.21328833911560      4.28279142460767     -0.65694640831111
  H   6.52831752130608      2.63780437599286     -1.27091057133431
  H   4.92400569497154      3.38112724198965     -1.50014376157486
  C   5.28909216421094      2.70243250604533      0.54044149069119
  N   4.74864461293151      1.34695307832855      0.40693210304374
  C   5.51024864223622      0.22690342548966      0.17750743695995
  C   6.91746223037575      0.23710721539206      0.32493041232802
  C   7.72160523971908     -0.90560605350850      0.17815487577518
  N   9.12550435175873     -0.78584922508934      0.34348058502849
  C   9.95347963609170     -1.74373274829304      0.90767831112761
  C   11.24583654060671     -1.26515103580558      0.89187759857461
  C   11.21298781539242      0.03033933100910      0.28964777900898
  C   9.90037794465244      0.30037584652698     -0.03299166441949
  H   9.45466194808506      1.14806053228994     -0.54427915900511
  H   12.05927704778482      0.68726795679877      0.10122655463966
  H   12.11842785570411     -1.78526561326612      1.28080733061527
  H   9.53954432561092     -2.66263274573325      1.31148864278164
  C   7.15944029428254     -2.14885930872584     -0.12194942087115
  C   5.77249314309045     -2.18885305303313     -0.26426698873160
  N   5.01299531081486     -3.33197281320672     -0.53206073711518
  C   3.78611113387263     -2.93238557150431     -0.54203341874154
  N   3.62472932533278     -1.54975658998360     -0.31191960044511
  C   2.38437305972257     -0.94393098169017     -0.40881385988667
  N   2.36409724552968      0.35924026225029     -0.76478390138633
  C   1.22683517032954      1.03071763012484     -0.93742190741707
  N   1.21185497600683      2.34071416743671     -1.22399503971147
  C   -0.00010009559989      2.89802549756373     -1.35075007955884
  N   -1.21199316886725      2.34073151033366     -1.22333388963828
  C   -1.22683506035188      1.03073562339845     -0.93675093135373
  N   -2.36401173077197      0.35927546805994     -0.76348916421549
  C   -2.38411577166968     -0.94389517222537     -0.40750686816848
  N   -3.62443126345591     -1.54969466320983     -0.30993432153624
  C   -4.94990806273071     -1.04364511149793     -0.14467950419309
  C   -5.77218202633804     -2.18874889248963     -0.26109143742875
  N   -5.01285315250623     -3.33188879841729     -0.52927826600697
  C   -3.78596707537867     -2.93232541784790     -0.53993257919830
  H   -2.92495339857768     -3.55277322299405     -0.77114808722249
  C   -7.15905088484743     -2.14872629407917     -0.11802437550786
  C   -7.72102998423588     -0.90545491107827      0.18235323119437
  N   -9.12483754119425     -0.78566640280420      0.34843161753546
  C   -9.89989070790810      0.30056704527788     -0.02764670408851
  C   -11.21233258545854      0.03056477108210      0.29570342175965
  C   -11.24488489822524     -1.26491274092475      0.89797725908779
  C   -9.95252973744654     -1.74352117542523      0.91309357869466
  H   -9.53839715301692     -2.66242138626895      1.31670113862358
  H   -12.11727799895182     -1.78500106982670      1.28738650083888
  H   -12.05870925901493      0.68750719251791      0.10772368769859
  H   -9.45443101319018      1.14823135311027     -0.53919124069321
  C   -6.91678625643859      0.23724664550242      0.32866598679322
  C   -5.50965134394888      0.22701250720945      0.18048615062418
  N   -4.74790266129140      1.34705128276056      0.40946757305095
  C   -5.28823945979822      2.70254568945345      0.54325387233098
  H   -6.13942445943677      2.65578776115583      1.24354432191059
  C   -4.20790902309409      3.58366049542377      1.17890846804257
  H   -3.89277756037044      3.17612066143253      2.15222413825402
  H   -4.58349931137738      4.60723375445696      1.33323672522871
  H   -3.32184574970745      3.64623544025854      0.52383103246317
  C   -5.77030841303542      3.28313675754229     -0.79665790187893
  H   -6.21299676065805      4.28292937715164     -0.65367403916562
  H   -6.52841947729398      2.63794543615539     -1.26744556442877
  H   -4.92419504584464      3.38119250828431     -1.49753154043444
  H   -3.82598744254748      1.30349001838791     -0.02745943153476
  H   -7.40396812576406      1.16933669684001      0.60502324098217
  H   -7.75474233141128     -3.04860850932580     -0.25900275968740
  C   -1.17449694415987     -1.65931863727818     -0.17283796406438
  C   0.00011849029703     -0.93037289717999     -0.44672220611065
  C   1.17487333582326     -1.65933543758446     -0.17348261199768
  C   0.69611293394117     -2.92139543206279      0.34032667033632
  C   -0.69547046500050     -2.92138750937222      0.34070418424865
  H   -1.30927163312375     -3.73967550918008      0.70944527727632
  H   1.31010629383290     -3.73969102442864      0.70873152573435
  N   0.00002859116989      0.36939946540647     -0.81418094619695
  C   -0.00016984376414      4.31742640308091     -1.65951945100059
  N   -0.00019686505281      5.45392472352477     -1.90189532785074
  C   4.95030524598097     -1.04373464602981     -0.14738710106143
  H   2.92495726695007     -3.55281261564128     -0.77278546178959
  H   7.75503908110339     -3.04874964170952     -0.26326774127997
  H   7.40480979930063      1.16918037779361      0.60105335933843
  H   3.82650964805370      1.30343192527028     -0.02953490863282
  H   6.14063939934987      2.65564514700134      1.24028968398807
  C   4.20911472506256      3.58357112612530      1.17666300614817
  H   3.32271348701253      3.64616998952150      0.52204519715492
  H   4.58480881958164      4.60713482992375      1.33080139165990
  H   3.89447886039267      3.17603222981352      2.15013923877417
