86
Coordinates from ORCA-job ./opt_b3lyp_cdz
  C   -4.90607363823198     -3.77365369492587     -2.30053962508997
  H   -5.60103767608929     -4.17444975429367     -3.05241418964707
  H   -3.88487493727918     -3.80401449371302     -2.71115342287301
  C   -4.97495398690011     -4.38410743741754     -0.87274277341384
  C   -4.75475296216465     -2.95724849263699     -0.31441066185084
  N   -5.44705252459155     -2.57180301618936      0.90988430054128
  C   -6.08854984287109     -3.41791745130952      1.79014789457231
  C   -6.55368497153741     -2.67520427979398      2.85990785004996
  C   -6.16429658912336     -1.32442065141248      2.63944059930560
  C   -5.48077005528268     -1.28547817448898      1.43397065692352
  N   -4.86774223468769     -0.20531936035077      0.77751047873265
  C   -5.55687148903468      0.77431288190472      0.07635259628520
  C   -6.96739930057036      0.78575091893510      0.00758192016849
  C   -7.68964064043880      1.79597154828034     -0.63779665206280
  C   -7.05074383862476      2.86696824086274     -1.26082185678536
  C   -5.65514266957500      2.87734838855657     -1.21660617878666
  N   -4.81177131931018      3.86472393774438     -1.73473250156207
  C   -3.61592299114611      3.49750069740958     -1.41562740339470
  N   -3.55372819680963      2.27979305307413     -0.70605380764302
  C   -4.90920627052652      1.85155220726790     -0.58310485481788
  C   -2.34416897007601      1.66948638266747     -0.41310544604161
  N   -2.33648625852247      0.31875541136359     -0.36603392788222
  C   -1.21354235886753     -0.37858687860047     -0.17384066220189
  N   -1.19969175498442     -1.71930583936875     -0.15370292461526
  C   -0.00150772461804     -2.29604155629192     -0.00085335315628
  N   1.19767507730635     -1.72119434423464      0.15127704383122
  C   1.21387313329633     -0.38048103381455      0.16971136677611
  N   2.33802815880962      0.31513476257038      0.36107363570703
  C   2.34808421045644      1.66589413015130      0.40650674406198
  N   3.55866865602797      2.27444439363245      0.69884926529511
  C   4.91344093440224      1.84356234572421      0.57700716569349
  C   5.66096821235722      2.86884372192895      1.20948365393090
  N   4.81917820746554      3.85837691172737      1.72606672826651
  C   3.62280024044798      3.49292937172505      1.40694839190946
  H   2.71000158484544      4.00450116709147      1.69847290816380
  C   7.05652442986485      2.85613880739576      1.25413593854556
  C   7.69377659386514      1.78337863339349      0.63245956834142
  C   6.97001302762341      0.77366407702539     -0.01198825014625
  C   5.55947166189808      0.76443723910847     -0.08099867081891
  N   4.86885130516480     -0.21494175783995     -0.78107673830350
  C   5.48017865682878     -1.29754226611396     -1.43511353317794
  N   5.44363194414943     -2.58282046618620     -0.90866862725673
  C   6.08414375459795     -3.43176846748605     -1.78692852511049
  C   6.55159188197893     -2.69191250685253     -2.85765302411407
  C   6.16446920587913     -1.34001420218588     -2.64002212500857
  H   6.35504942886645     -0.48150779514863     -3.27983019329339
  H   7.10395669172671     -3.08590844641940     -3.70775119010772
  H   6.13852606441179     -4.49849678874249     -1.59344831896457
  C   4.74946690213276     -2.96470364267874      0.31570365268394
  C   4.96459303874290     -4.39164348139225      0.87576324377453
  C   4.89660115312982     -3.77935262262522      2.30282107689957
  H   3.87498714523700     -3.80592356065155      2.71266792693138
  H   5.58963645734174     -4.18160073583633      3.05570251220650
  C   5.23390730903959     -2.39769237154084      1.67945502286978
  H   6.31888009194346     -2.21194321757680      1.66178835674602
  H   4.71979342627125     -1.50771079118867      2.06812877262953
  H   5.98070084793061     -4.75582903829745      0.66084074489436
  H   4.23629867730979     -5.16696955489082      0.59416320237349
  H   3.67159974442887     -2.76645649948442      0.19637139875721
  H   3.89656241124768     -0.32509792614101     -0.49120345921346
  H   7.50157150297037     -0.04389002523719     -0.49971838044260
  H   8.78456902671527      1.72134037790426      0.63755586373781
  H   7.59793527471299      3.66514194605026      1.74441506424383
  C   1.15842969447379      2.42012236206232      0.20248963510255
  C   0.00194943143830      1.64390105242811     -0.00338094890777
  N   0.00075912231225      0.29280695083338     -0.00251263778739
  C   -1.15318910233904      2.42187840326490     -0.21018650111416
  C   -0.68170246217290      3.78606153057581     -0.11909895268406
  C   0.68929153740307      3.78501305831878      0.10973317354717
  H   1.29856506306230      4.68163207690406      0.19208639633179
  H   -1.28942771712679      4.68362330890931     -0.20260210743847
  H   -0.00245929763314     -3.39085980054779     -0.00016335032866
  H   -2.70229693447613      4.00700846384272     -1.70818580357278
  H   -7.59092491799916      3.67634276371076     -1.75184417606537
  H   -8.78053644486929      1.73575301401389     -0.64255036391924
  H   -7.50014503516197     -0.03043039399714      0.49631983876896
  H   -3.89576203814098     -0.31770495616603      0.48745846007111
  H   -6.35277789412738     -0.46440026970923      3.27783167062312
  H   -7.10609967611955     -3.06657767169011      3.71118619892697
  H   -6.14515515716631     -4.48488144447183      1.59859548698255
  H   -3.67616926763851     -2.76237211717381     -0.19597334934827
  C   -5.23826379463977     -2.39016882134467     -1.67847381149815
  H   -6.32258431851818     -2.20072800990986     -1.66023494843307
  H   -4.72142041534511     -1.50238696474236     -2.06853935630798
  H   -4.24897797970690     -5.16149768286653     -0.59084912420857
  H   -5.99207652737794     -4.74469770759526     -0.65656462840583
