86
Coordinates from ORCA-job ./opt_b3lyp_cdz
  C   -5.23054430263052     -4.70291992671173     -0.22850838141726
  C   -4.27316960296872     -3.80429197257397      0.60211458430391
  H   -3.35170903200658     -3.58172979006148      0.03941748571670
  H   -4.00526831604150     -4.11939074654230      1.62210574488736
  C   -5.29441906513242     -2.64843791036253      0.45252799004907
  N   -4.73435568896203     -1.32672809593794      0.30424829288850
  C   -5.49701528826055     -0.19230182684594      0.15419754722143
  C   -6.90076175296958     -0.22043101948953      0.31600402014804
  C   -7.71109372970030      0.92578925103273      0.23902455457191
  N   -9.11359861918987      0.79050552568985      0.41151535203460
  C   -9.88883301775938     -0.27018105333377     -0.02971921786815
  C   -11.19924487802721     -0.02710743431578      0.32337777900061
  C   -11.22954689677393      1.22479898922936      1.01142266982082
  C   -9.93791149074385      1.70534717261414      1.04675651773584
  H   -9.52175261124377      2.59663997150861      1.50646454836960
  H   -12.09959964046765      1.71471846406312      1.44299901346596
  H   -12.04566436834497     -0.67281505479754      0.09978740099738
  H   -9.44477124035562     -1.07943020900039     -0.60133654942599
  C   -7.15748576306283      2.18444113292114     -0.00327753313418
  C   -5.77151776347498      2.23938752490139     -0.16242242829208
  N   -5.01883041176706      3.39587775936292     -0.38574067889778
  C   -3.79053509475802      2.99909680227022     -0.43256934872684
  N   -3.62357982730551      1.60987743329243     -0.26952000049803
  C   -2.38148716673517      1.00711417031534     -0.40188559405668
  N   -2.36420800457736     -0.27508565905436     -0.81974364124041
  C   -1.22454737789547     -0.94254791211182     -1.02006402250644
  N   -1.20846025903795     -2.23789866841168     -1.36361041632299
  C   0.00011820240874     -2.79383004344268     -1.51462114256247
  N   1.20873597973456     -2.23840622778147     -1.36206222106158
  C   1.22492879692867     -0.94306452712417     -1.01848875218728
  N   2.36461358139001     -0.27608974937280     -0.81668747895039
  C   2.38190390767359      1.00610001767966     -0.39879646123327
  N   3.62408631748248      1.60831882221756     -0.26478019507951
  C   3.79185523745172      2.99747096047878     -0.42757944431257
  N   5.02025361910197      3.39372936114626     -0.37908152914976
  C   5.77214771036044      2.23691784317503     -0.15476317726906
  C   7.15787627876682      2.18138978296858      0.00624006923841
  C   7.71063213283248      0.92250177248580      0.24926122533534
  N   9.11284700561194      0.78662734500502      0.42363136353953
  C   9.93669588575874      1.70112490915663      1.05996915499265
  C   11.22817680292546      1.22003976942114      1.02634983001894
  C   11.19826843222719     -0.03185269197105      0.33826193981473
  C   9.88822623871494     -0.27437995936621     -0.01657700709766
  H   9.44458580923343     -1.08344191052326     -0.58878585612745
  H   12.04471589260320     -0.67791176915461      0.11579574180252
  H   12.09785889918027      1.70959637337689      1.45908351292298
  H   9.52029893184783      2.59258991109550      1.51912757032968
  C   6.89971563174903     -0.22337714295555      0.32513450336837
  C   5.49619767679364     -0.19466020846168      0.16144100480310
  N   4.73286179367114     -1.32876716846581      0.31045233066421
  H   3.82915433491452     -1.27891202216040     -0.16266751215028
  C   5.29216432446171     -2.65073123486673      0.45937010063523
  H   5.99496343099186     -2.65452918624690      1.30961099285614
  C   5.91746463480440     -3.41935843866968     -0.75362439038142
  C   5.22827892038368     -4.70512262715739     -0.22193754634153
  C   4.27022128665401     -3.80615710172184      0.60753235283429
  H   4.00088307489697     -4.12123645305200      1.62715109363682
  H   3.34957185102832     -3.58315366028072      0.04368055701840
  H   5.89957303207006     -5.29455245106621      0.42251020734873
  H   4.77301222031015     -5.37914684553287     -0.96219712554788
  H   7.01343040353728     -3.42277448818908     -0.85891903269675
  H   5.46695921649478     -3.07675956650221     -1.69867105125094
  C   4.94429283620963      1.09148447757725     -0.10420280432447
  H   7.37698862903706     -1.17590593217545      0.54461754696672
  H   7.76031092428029      3.08367104532477     -0.08167339011108
  H   2.93564344378645      3.63091701090639     -0.64089344729285
  C   1.17424578188253      1.71290324850821     -0.13483783767128
  C   0.00023106884398      0.99744547658068     -0.44088215454197
  N   0.00023042551358     -0.28602875595003     -0.86501754346560
  C   -1.17387463767825      1.71340408601024     -0.13636505099996
  C   -0.69508861018174      2.95353887132593      0.43208532604901
  C   0.69524429789433      2.95321236859589      0.43305562177990
  H   1.30939846619763      3.75462190038827      0.83669554052621
  H   -1.30942851245121      3.75523430190663      0.83487636507206
  H   0.00007551162151     -3.85253795079853     -1.79371962022146
  C   -4.94421698041955      1.09360690554694     -0.11072727400263
  H   -2.93376385299853      3.63217560812855     -0.64473261712363
  H   -7.75942590475049      3.08697272058745     -0.09200735146464
  H   -7.37872982126024     -1.17275834125810      0.53485331707509
  H   -3.83001787380921     -1.27728945200830     -0.16771291548864
  H   -5.99833825503885     -2.65186600246392      1.30184430074638
  C   -5.91846675077562     -3.41690010619104     -0.76121822799347
  H   -7.01429500118456     -3.41983920010272     -0.86795110425745
  H   -5.46656926728237     -3.07459777605229     -1.70570751366332
  H   -4.77460995172137     -5.37721338953780     -0.96811127173525
  H   -5.90293505106665     -5.29199099542927      0.41512309410472
