92
Coordinates from ORCA-job ./opt_b3lyp_cdz
  C   -4.76591637592860     -4.16653432906235      1.09850860810552
  C   -5.81423879275848     -3.11926931491105      0.68630593423578
  H   -6.77129505985145     -3.62458488694740      0.46624258365943
  H   -6.01373957567699     -2.36485226305381      1.46212784827832
  C   -5.25334215528892     -2.47125618701847     -0.62403586372791
  N   -4.70881983790358     -1.12717574528292     -0.46560584108744
  C   -5.48744736216045     -0.01427846420438     -0.25013256165833
  C   -6.89466729986831     -0.04982982152616     -0.38063234100050
  C   -7.71244916956479      1.08753397753214     -0.25721355569298
  C   -7.16478440231086      2.34505097806796      0.00259149124496
  C   -5.77635334551729      2.40757496855936      0.13645654381549
  N   -5.02721096731707      3.56460473494834      0.36896796910241
  C   -3.79562192989210      3.17548999182085      0.38614764864334
  N   -3.62368348564852      1.79039035371314      0.19326865471306
  C   -2.38121057249170      1.18863830072339      0.32624243003927
  N   -2.36516177213853     -0.09363225214357      0.74474418385873
  C   -1.22585404200920     -0.75933061623153      0.95197087722844
  N   -1.20961016922866     -2.05343976392566      1.30118036678994
  C   -0.00101051363977     -2.60781743872370      1.45807762981272
  N   1.20774818763271     -2.05329738049507      1.30294199790251
  C   1.22435143313992     -0.75918659349320      0.95375894291141
  N   -0.00067898639423     -0.10272526957546      0.79760258159214
  C   -0.00045780084438      1.17980396677411      0.37001451160407
  C   -1.17394036793297      1.89567749534685      0.06362122300283
  C   -0.69518167107962      3.13671457788251     -0.50258002308214
  C   0.69537604103225      3.13682661450309     -0.50147666332821
  C   1.17340214843240      1.89581287072939      0.06536344205649
  C   2.38035652845724      1.18890434316083      0.32967980951355
  N   3.62293252106669      1.79088138050247      0.19858018027853
  C   4.94217107643770      1.27003070622882      0.05236477988892
  C   5.77559590547171      2.40836550857179      0.14517085850284
  N   5.02596253170198      3.56520644521872      0.37703711674366
  C   3.79439322898449      3.17593000188696      0.39222063103435
  H   2.93714661184001      3.80985003666209      0.60062418700214
  C   7.16422857500037      2.34603778910052      0.01326013028868
  C   7.71239100003438      1.08871109884598     -0.24640354691303
  C   6.89490697030989     -0.04868284503128     -0.37158774160612
  C   5.48751076960361     -0.01332821154111     -0.24307867407393
  N   4.70925814529544     -1.12616825969730     -0.46030843970057
  H   3.80058432334633     -1.07715031385458      0.00334787222684
  C   5.25414044334100     -2.47011585337622     -0.61880528648997
  H   6.04873287664733     -2.41717749221394     -1.37885778346583
  C   5.81309001209752     -3.11882531142211      0.69196924426260
  H   6.76994450982977     -3.62491944900801      0.47280081792207
  H   6.01241323827751     -2.36474338741456      1.46816644604688
  C   4.76342343622703     -4.16528284522006      1.10276399106437
  C   4.28246673895761     -4.71099971717447     -0.25020827294609
  H   3.34751078509444     -5.28981595129686     -0.18532616143826
  H   5.05202477514278     -5.37707824215499     -0.68123560150878
  C   4.13295883379624     -3.43783523447096     -1.10128914871851
  H   3.15121972838835     -2.97898397088736     -0.89600174234631
  H   4.18278270610318     -3.62514780797410     -2.18451738323862
  H   5.16543269292764     -4.94047238686209      1.77412351153479
  H   3.91971380341755     -3.67562622340023      1.62102686662436
  H   7.37279084295933     -0.99644490630307     -0.60822703554354
  N   9.11730022867157      0.94476127474658     -0.39067211945023
  C   9.87247179665774     -0.13534626730279      0.03821533036571
  C   11.19291953365794      0.10492434228053     -0.27746352726780
  C   11.25052799454533      1.37516804982521     -0.92914467527958
  C   9.96445549694176      1.86897605006198     -0.98067075404760
  H   9.56732373079769      2.77669912796969     -1.42475062918866
  H   12.13471030295605      1.86870078616045     -1.32653291519283
  H   12.02792252219903     -0.55510568266357     -0.05277085165230
  H   9.40802017183421     -0.95626852885174      0.57598486281397
  H   7.77107031174228      3.24141926414579      0.13492736965447
  N   2.36388056132891     -0.09336606558045      0.74815661418943
  H   1.31091093761187      3.93860105290148     -0.90248924445527
  H   -1.31017804986992      3.93839408029899     -0.90458626970638
  H   -0.00115405090978     -3.66432709992127      1.74511930543257
  C   -4.94265840412534      1.26929756533417      0.04539111064658
  H   -2.93878036476948      3.80961166692368      0.59557790860095
  H   -7.77188593988525      3.24042862234762      0.12297926904240
  N   -9.11713539569443      0.94336316948382     -0.40340869593177
  C   -9.96354603609129      1.86719501548627     -0.99507408622104
  C   -11.24963522825166      1.37326689860399     -0.94515326489684
  C   -11.19282535315132      0.10336487910697     -0.29273546130205
  C   -9.87280202631716     -0.13661368859211      0.02493329844581
  H   -9.40902896424446     -0.95721758710971      0.56377324663651
  H   -12.02807930271439     -0.55663804193896     -0.06889781039976
  H   -12.13329998109286      1.86650300638984     -1.34405812638866
  H   -9.56587817353201      2.77473973240775     -1.43903871991054
  H   -7.37211539790366     -0.99777089771012     -0.61743199866515
  H   -3.80065800736194     -1.07770507001752     -0.00100752097160
  H   -6.04683749111235     -2.41887857543415     -1.38528063589121
  C   -4.13146386458767     -3.43918291645571     -1.10433884362648
  H   -4.17902530597682     -3.62625333459645     -2.18771235681114
  H   -3.15001613421802     -2.98070795208078     -0.89680163777404
  C   -4.28322748843840     -4.71239589041663     -0.25379001919555
  H   -3.34879946495424     -5.29190890303518     -0.18752418330467
  H   -5.05258917181136     -5.37782069556648     -0.68618410323606
  H   -3.92264731058470     -3.67757780043169      1.61813766838662
  H   -5.16948685899226     -4.94154146254765      1.76914157279611
