98
Coordinates from ORCA-job ./opt_b3lyp_cdz
  C   -5.13696634187068     -5.19880527195207      0.34810556710509
  H   -5.52808116823225     -6.22650565474215      0.25720938483902
  H   -4.26602481414892     -5.25294225650005      1.02862619230691
  C   -6.19889210822163     -4.27593499373510      0.96240424171122
  C   -5.70590160729825     -2.82330578469241      1.03675506462593
  H   -6.48889318314909     -2.16837526819179      1.45333806702162
  H   -4.84050000254487     -2.75665110072238      1.72218563707494
  C   -5.25989487549303     -2.30085111663473     -0.34539590859929
  N   -4.73148576434513     -0.93944723761469     -0.30457301235963
  C   -5.50149580930935      0.18831203017889     -0.14389022637447
  C   -6.90786980372705      0.16243282858296     -0.29121123372745
  C   -7.71684156666566      1.30911355946225     -0.21473220191364
  N   -9.12109048504086      1.17231810317410     -0.37358672304984
  C   -9.89263055878277      0.11498248512470      0.08179369688883
  C   -11.20607991686951      0.35557043800472     -0.26178365186847
  C   -11.24219795556526      1.60244136440489     -0.95847380866154
  C   -9.95081724417917      2.08249010120994     -1.00834583198268
  H   -9.53856571515946      2.97033152279549     -1.47808859492525
  H   -12.11581796501395      2.08956840168808     -1.38598446547443
  H   -12.05046933633993     -0.28855316020183     -0.02625541996133
  H   -9.44407807713685     -0.69063841436397      0.65495090702145
  C   -7.16150620916373      2.57038107067643      0.00895894696099
  C   -5.77392827422078      2.62578964431512      0.14982425929688
  N   -5.01932780110975      3.78508051978508      0.35034304083177
  C   -3.79053660214044      3.38929571503567      0.38837134071799
  N   -3.62462827123659      1.99825323824451      0.24141218754604
  C   -2.38141152085229      1.39931721946027      0.38098110809653
  N   -2.36342413750311      0.12417722736625      0.81929398647683
  C   -1.22405852545203     -0.53976655838160      1.03230605095380
  N   -1.20811290212487     -1.82852327897993      1.39949921620419
  C   0.00079126486373     -2.38083447246667      1.56131900492294
  N   1.20956550006344     -1.82858410782798      1.39832444774203
  C   1.22521863121613     -0.53982997113616      1.03110960160448
  N   2.36440955338468      0.12405553395637      0.81698058599572
  C   2.38202912184244      1.39919287509068      0.37864769692586
  N   3.62514811480927      1.99802656219016      0.23778885737600
  C   4.94771400618472      1.47848321733547      0.09828771979445
  C   5.77440259354761      2.62535832327795      0.14384365287554
  N   5.02012480703651      3.78473741642769      0.34506993930728
  C   3.79133856240388      3.38906497406487      0.38446487813384
  H   2.93282817165670      4.02517641038824      0.57977880723052
  C   7.16182213379011      2.56979680482796      0.00148512310808
  C   7.71679221277935      1.30844642412850     -0.22265570952260
  N   9.12085518412504      1.17149004607610     -0.38300273739526
  C   9.94999330152628      2.08149888394734     -1.01876324041072
  C   11.24137910111494      1.60132938775791     -0.97020760015759
  C   11.20588210569066      0.35455129536896     -0.27331886223070
  C   9.89277658360550      0.11413690778884      0.07169037644215
  H   9.44475392197060     -0.69136472962942      0.64542923523085
  H   12.05045923109788     -0.28962509694483     -0.03860966194028
  H   12.11459035694192      2.08831521909003     -1.39871306715217
  H   9.53732789378612      2.96932070748143     -1.48817927589267
  C   6.90762674513560      0.16183223351329     -0.29810426867815
  C   5.50142542751688      0.18786907605034     -0.14923987425453
  N   4.73113560823344     -0.93984903783692     -0.30885354212283
  C   5.25939393464503     -2.30130691387188     -0.34992276429638
  H   6.12718738109504     -2.31180240258482     -1.03315977705088
  C   4.18963983155430     -3.22835046189963     -0.95132585364510
  H   3.90840185003120     -2.85671251462185     -1.95074579584366
  H   3.28250861078514     -3.17265349155377     -0.31997103129367
  C   4.67481051532063     -4.68314069071938     -1.02575311975261
  H   3.87302042758989     -5.32523032870842     -1.42823371879165
  H   5.51512953655292     -4.75096660477181     -1.74275075082764
  C   5.13711235935311     -5.19905664271350      0.34455695273289
  H   4.26700879783536     -5.25293343769903      1.02616931373616
  H   5.52804011816143     -6.22681160285068      0.25347398112930
  C   6.19986147553018     -4.27608738980155      0.95727925521397
  H   6.48424742535202     -4.63009985644931      1.96270792937185
  H   7.11915512518127     -4.32049841146863      0.34205382190648
  C   5.70707033683879     -2.82339989854040      1.03182501831867
  H   4.84253092579113     -2.75647893297191      1.71831784647279
  H   6.49063215658488     -2.16841699465333      1.44725128196233
  H   3.81107606114958     -0.86002391703413      0.12856429918528
  H   7.39065809799116     -0.78767143308507     -0.51720221328580
  H   7.76248742759470      3.47342498111456      0.08700542186816
  C   1.17427006000644      2.10126930612192      0.10173959231436
  C   0.00032889208845      1.39039084815885      0.41904182606087
  C   -1.17388627712164      2.10132926408954      0.10289111172338
  C   -0.69531050158591      3.33211079472618     -0.48536150996432
  C   0.69518091793640      3.33207258123112     -0.48604928249847
  H   1.30938182179024      4.12695575626788     -0.90236706635809
  H   -1.30987892674640      4.12702752682587     -0.90107281603501
  N   0.00051586635921      0.11444071938871      0.86605147699192
  H   0.00091038334178     -3.43393469996946      1.86108225926065
  C   -4.94739349775160      1.47884051987576      0.10324660348328
  H   -2.93176093256617      4.02531212694853      0.58282729669137
  H   -7.76199053271621      3.47405849174772      0.09522619828330
  H   -7.39123507939242     -0.78698924110271     -0.50992404763232
  H   -3.81093297406389     -0.85980307355277      0.13183553018996
  H   -6.12852621007518     -2.31108969569606     -1.02756751128370
  C   -4.19094748018355     -3.22779696193085     -0.94838191820869
  H   -3.91091501664209     -2.85589157388102     -1.94804090196109
  H   -3.28303383848220     -3.17234092280454     -0.31812999144060
  C   -4.67631600923104     -4.68253104087563     -1.02262562692909
  H   -5.51752456661048     -4.75008514880341     -1.73860488939392
  H   -3.87507305016333     -5.32456667476621     -1.42628016362904
  H   -6.48206091340565     -4.63021523490511      1.96808207655943
  H   -7.11894801363716     -4.32010340671519      0.34830185596706
