92
Coordinates from ORCA-job ./opt_b3lyp_cdz
  C   -5.34819463927109     -1.22114922763941      2.84029102160502
  H   -5.78712786123985     -0.79477740578450      3.75584828957798
  H   -4.74602751493621     -0.43114573856693      2.36092313922304
  C   -6.41461163027863     -1.74164303599097      1.85583299460807
  H   -7.28173508241931     -2.13579401983986      2.41130300746598
  H   -6.79588696116551     -0.96179025453258      1.18438158420203
  C   -5.74075442148600     -2.91943690382820      1.08046804667955
  N   -5.72226701989525     -2.79874672209875     -0.38313235441941
  C   -6.08578645845221     -3.82940121813425     -1.22194612563805
  C   -5.86560384567634     -3.44972500019835     -2.53255745000854
  C   -5.32869777523177     -2.13461012301423     -2.49717648493026
  C   -5.24179584881811     -1.75126411455745     -1.16666931391726
  N   -4.79113288947675     -0.53414435684211     -0.62590280470283
  C   -5.49829290294434      0.65252596653921     -0.71384029224968
  C   -6.87383727401231      0.65028629713602     -1.04387878768396
  C   -7.64835057758170      1.81307541222239     -1.10850097076052
  C   -7.10158815949923      3.06650165530577     -0.84136440212090
  C   -5.74207864764476      3.10348063602539     -0.52630068052884
  N   -4.98539982059863      4.25030249946513     -0.27082567168146
  C   -3.77552629797578      3.83249278935071     -0.10659235054618
  N   -3.62272686241592      2.43521456323722     -0.21286731606340
  C   -4.93937035259665      1.93450677926733     -0.46402611277622
  C   -2.38448137097072      1.83342791226162     -0.05083409671838
  N   -2.36695844552747      0.55644579316849      0.38529489365216
  C   -1.22546533087956     -0.09955350836707      0.61614164728370
  N   -0.00041737773583      0.55415983066389      0.44838231743509
  C   -0.00088244731353      1.83003845645718      0.00441161826680
  C   1.17310140873741      2.54040977720644     -0.31200531515203
  C   0.69325405342904      3.77122368459036     -0.90123076419150
  C   -0.69624943427042      3.77051392221393     -0.90182065236957
  C   -1.17533771577282      2.53919661801794     -0.31302081942493
  H   -1.31037382757849      4.56462910799874     -1.31920800872449
  H   1.30692215547944      4.56597667045825     -1.31807580572557
  C   2.38275878754447      1.83591767750506     -0.04876561305314
  N   3.62052578110493      2.43901492621911     -0.20970126516877
  C   3.77177778276947      3.83647490889560     -0.10323976695707
  N   4.98137775207447      4.25557253214055     -0.26633215847284
  C   5.73948061227425      3.10954962617868     -0.52114186461166
  C   4.93793020202596      1.93972419705775     -0.45967184699039
  C   5.49841226960250      0.65832667534772     -0.70907215490966
  N   4.79237251329123     -0.52908876567552     -0.62187159114039
  C   5.24499030422804     -1.74578998405737     -1.16196926282971
  N   5.72589583066267     -2.79259803055804     -0.37778036834963
  C   6.09182955070380     -3.82280867360097     -1.21608539313627
  C   5.87258498707471     -3.44356477931861     -2.52698209207029
  C   5.33389925316484     -2.12915564567851     -2.49233990939030
  H   5.04930012754223     -1.50504233220971     -3.33666326567942
  H   6.07783769233767     -4.04702846382178     -3.40822802942405
  H   6.47251657945357     -4.75394377206273     -0.80370410244326
  C   5.74272185027517     -2.91321636813614      1.08595200444521
  H   6.32914378383228     -3.82507396405106      1.26727914949411
  C   6.41323624635966     -1.73416093778289      1.86244914664708
  H   7.28043558204346     -2.12671406784139      2.41893364386618
  H   6.79383770833608     -0.95342210532102      1.19164672552384
  C   5.34456131366899     -1.21596103745123      2.84577698964702
  H   5.78139066136238     -0.78883637311715      3.76212414666761
  H   4.74138935114642     -0.42708694798308      2.36580317259444
  C   4.45725764866421     -2.44479096474322      3.10939942272502
  H   4.96118982504217     -3.13330150812531      3.81281427485424
  H   3.47720912591739     -2.18929453582152      3.54210903465731
  C   4.33649983113197     -3.08584469983323      1.71931189829654
  H   4.02493983462710     -4.14220076467625      1.74402572540556
  H   3.58501072482059     -2.53901916751348      1.12988271947406
  H   3.84603710630720     -0.45714567367098     -0.25019888706244
  C   6.87428462381766      0.65753479534826     -1.03777150931986
  C   7.64764454069639      1.82113591692430     -1.10158225426778
  C   7.09933730528004      3.07398145311123     -0.83491537878682
  H   7.67584783397216      3.99781345525979     -0.87941680962014
  H   8.70454205750642      1.73216393604448     -1.36347244586401
  H   7.33657443659586     -0.30595357707843     -1.25418975590885
  H   2.92142934788350      4.45784787456331      0.16232766978797
  N   2.36617585001587      0.55891623393388      0.38736208588057
  C   1.22516883024821     -0.09827711445703      0.61719995998190
  N   1.20772640134739     -1.37871640446598      1.00990119127499
  C   0.00055906865659     -1.92920332064046      1.18477676908663
  N   -1.20702419539770     -1.37996936558316      1.00885220191029
  H   0.00096053898749     -2.97500566227168      1.50832227730936
  H   -2.92607544501217      4.45476392501678      0.15974865487694
  H   -7.67900166674782      3.98974094732484     -0.88646788187424
  H   -8.70489946239505      1.72299554049161     -1.37141103865875
  H   -7.33490692795848     -0.31369567161026     -1.26070507920932
  H   -3.84521723147927     -0.46119400704356     -0.25336134899835
  H   -5.04389638979721     -1.51006901753692     -3.34111588554024
  H   -6.06903844953774     -4.05338194129784     -3.41409241703781
  H   -6.46569356131708     -4.76108442123671     -0.81008409347750
  C   -4.33497273916143     -3.08913986381056      1.71554738320829
  H   -4.02126363308788     -4.14484673120200      1.74076742031330
  H   -3.58393573458119     -2.54080017308566      1.12693115621728
  C   -4.45876624761492     -2.44811135891480      3.10535471110369
  H   -4.96222170346182     -3.13749424499726      3.80825661749563
  H   -3.47979084436983     -2.19054634350098      3.53926663082401
  H   -6.32560615428730     -3.83244042579869      1.26110355932109
