21
Coordinates from ORCA-job ./opt_b3lyp_cdz
  O   2.25608458350033      3.50275127129665      0.24710664335710
  C   1.49714845721406      2.38424245961729      0.23074432817511
  C   2.15642753963684      1.16110313699225      0.10955896323161
  C   1.42772296344032     -0.03543324189982      0.08629969449936
  C   2.02829552714328     -1.31302164553101     -0.03414914589544
  C   1.22222936248903     -2.43038340557286     -0.04719399891552
  N   -0.11461241704444     -2.40918558116322      0.04684339192212
  C   -0.72824380811366     -1.22777660764186      0.16231199348565
  N   -2.06460217430228     -1.21422465019081      0.25591680440635
  C   -2.68586829003366     -0.03573553795906      0.37175913525381
  C   -2.05083547316053      1.18933833675842      0.40325012206946
  C   -0.64012085578046      1.22888001303181      0.30775664041726
  C   0.10523754841407      2.41895153570544      0.32944820387694
  N   0.02569040451460     -0.00079912214839      0.18569088254455
  H   1.67962378279771      4.27744280784343      0.33500430782642
  H   3.24159531032805      1.12493178518051      0.03202718279283
  H   3.11264709778912     -1.37827943815744     -0.11334429495118
  H   1.67087611889970     -3.42634994172088     -0.13979985422188
  H   -3.77881112717288     -0.08508057522043      0.44462079714264
  H   -2.60041329077844      2.12494455931645      0.49911190262261
  H   -0.43697125978075      3.36107384146346      0.42514630036018
