94
Coordinates from ORCA-job ./opt_b3lyp_cdz
  C   -5.83675142846986     -2.90431612498605      0.41718727646180
  H   -6.32006097012657     -3.78847872958594      0.86568339110603
  H   -4.94214207678628     -3.24348733219695     -0.13237410000365
  H   -6.53493367397629     -2.46732765598454     -0.31356611072658
  C   -5.44235120024980     -1.88625819883980      1.50077706472166
  N   -4.84854924855392     -0.66856359003918      0.94740993421750
  C   -5.55797229577107      0.30173736761865      0.27713595518996
  C   -6.97073574888599      0.33907221411501      0.27882673878490
  C   -7.71841026334242      1.36380953689422     -0.32911029505791
  C   -7.09106698851839      2.42882655494492     -0.97652241009055
  C   -5.69429862586350      2.42183248587271     -0.98328799866465
  N   -4.87213647738491      3.40611133139042     -1.53711548933746
  C   -3.66430600153674      3.02571340830490     -1.27726981505600
  N   -3.57856623496701      1.80683664048139     -0.57999259178522
  C   -4.92841643768708      1.38561261411328     -0.40085779970665
  C   -2.35543125179438      1.19483161631039     -0.33007260589011
  N   -2.34684200414220     -0.15207733385959     -0.28708797233307
  C   -1.21414903816949     -0.85153473667235     -0.12981520687880
  N   -1.20019251515406     -2.18331659077098     -0.10505095820392
  C   0.00034157204501     -2.79239277733783     -0.00094391354061
  N   1.20078290167919     -2.18329400476989      0.10411453604177
  C   1.21452946513095     -0.85154686278471      0.13095639638236
  N   2.34710868071344     -0.15214961139029      0.28931914619601
  C   2.35547270229600      1.19469308034570      0.33440319580386
  N   3.57853646578626      1.80649884118592      0.58516779916770
  C   4.92843220382380      1.38576731964437      0.40523630958122
  C   5.69421713562137      2.42124640786902      0.98908234257312
  N   4.87197080077745      3.40455119725522      1.54451011576043
  C   3.66416614487970      3.02433408072966      1.28427740478307
  H   2.76195150619564      3.53003156040951      1.61612403956880
  C   7.09097677316747      2.42846098094147      0.98215726200540
  C   7.71843115697575      1.36454063751650      0.33305641331152
  N   9.13636715513119      1.30677996716954      0.27636511349434
  C   9.90784516710990      0.15845796410692      0.35633740735274
  C   11.23578486185310      0.51977170911608      0.26991978393554
  C   11.28159302256498      1.94039141516190      0.12564902818317
  C   9.98047782143869      2.39642920606268      0.13718568069275
  H   9.57480045646653      3.39604895460569      0.01426843889813
  H   12.16880968988968      2.55988562737611      0.01445537812790
  H   12.08211341024110     -0.16199159958978      0.31806121783810
  H   9.44368216084736     -0.80955732450615      0.51843735790617
  C   6.97083650209048      0.34053931149518     -0.27628980928478
  C   5.55807332290291      0.30299686962863     -0.27442649053624
  N   4.84869302750248     -0.66644408041460     -0.94598718885747
  C   5.44257282555561     -1.88327703056137     -1.50116501867033
  H   6.34599504778138     -1.58863862495238     -2.06203234752832
  C   5.83733884160413     -2.90278915282143     -0.41907386295707
  H   6.32074007045042     -3.78622816608180     -0.86889424495861
  H   6.53556129849138     -2.46669806421834      0.31217612401469
  H   4.94288421661138     -3.24290377476891      0.13015653679847
  C   4.44836300572412     -2.48369422604530     -2.50080219027691
  H   4.20243379572671     -1.75756535824438     -3.29114308394187
  H   3.51149933541606     -2.77210895788262     -1.99310624058877
  H   4.86724104152649     -3.38659165184458     -2.97236021815561
  H   3.89873874950875     -0.78569914191773     -0.58712329495254
  H   7.51454836393293     -0.44006568221207     -0.80352849974744
  H   7.64201847403439      3.22417140240986      1.48015023001658
  C   1.16198414863525      1.95329135016236      0.17034899098585
  C   0.00001798695638      1.17721452230802      0.00217829896190
  N   0.00013374520339     -0.17313555845721      0.00110745542447
  C   -1.16207490760635      1.95336312089454     -0.16478407016402
  C   -0.68907103552796      3.31880587344955     -0.08740930207640
  C   0.68875665541411      3.31877607142838      0.09511575669053
  H   1.29920566356302      4.21621724112996      0.15835925897376
  H   -1.29966768019766      4.21624483135754     -0.14924242451053
  C   0.00044378797285     -4.27384042678846     -0.00210951667332
  C   -1.18981428791962     -4.98522428423128     -0.24394859735421
  C   -1.18640750548587     -6.37981219267334     -0.24662988354776
  C   0.00062554771216     -7.08083371528571     -0.00434745984073
  C   1.18756759790652     -6.38004505324292      0.23905841613075
  C   1.19079331656393     -4.98545536902921      0.23860200337364
  H   2.10754661704725     -4.42826159571591      0.43029968502829
  H   2.11498494499372     -6.92446180617285      0.43105895858625
  H   0.00069661602909     -8.17359749605973     -0.00522084379811
  H   -2.11375438212334     -6.92404266398494     -0.43949651452993
  H   -2.10664118262980     -4.42784084109564     -0.43474876801045
  H   -2.76212993535001      3.53205391972053     -1.60823943645599
  H   -7.64218109089660      3.22519834707982     -1.47338144513994
  N   -9.13632516195003      1.30562714026912     -0.27253628674728
  C   -9.98068369927572      2.39484119634473     -0.13143302288492
  C   -11.28170011673164      1.93849608098181     -0.12071167799552
  C   -11.23557817974731      0.51814724995192     -0.26750825791904
  C   -9.90755608292965      0.15727658464804     -0.35457452002924
  H   -9.44318480644750     -0.81034793073840     -0.51839953310867
  H   -12.08175622489921     -0.16371493806450     -0.31686739146791
  H   -12.16905345367250      2.55759513185475     -0.00841927738986
  H   -9.57522938326270      3.39433129854092     -0.00673503144172
  H   -7.51452778792566     -0.44230723296969      0.80479754477710
  H   -3.89852564967285     -0.78717644648149      0.58851169251251
  H   -6.34592535773060     -1.59253329819494      2.06187878254471
  C   -4.44824604400774     -2.48793677922081      2.49976298942277
  H   -3.51125321004869     -2.77554726182568      1.99184161633315
  H   -4.20255192709361     -1.76287239542776      3.29115281628239
  H   -4.86710190439533     -3.39153521613097      2.96999766630655
