84
Coordinates from ORCA-job ./opt_b3lyp_cdz
  N   -4.47487650906460      0.10272044215717     -0.34804519874124
  C   -5.12434505640572      1.32747166542345     -0.22907820053153
  C   -6.51669589009322      1.45654870586426     -0.40689143521879
  C   -7.17761951127965      2.69016926642286     -0.37034792920765
  C   -6.48830457505492      3.88059677781885     -0.14712848962237
  C   -5.10858898479934      3.78150438328968      0.04710642557457
  N   -4.21557763478190      4.83766557435974      0.25169400583651
  C   -3.04779978753546      4.28987032824586      0.32287778468532
  N   -3.05759342920039      2.88650004155171      0.19502408739186
  C   -4.42994028007565      2.53699304014316      0.02673941396377
  C   -1.90886365823166      2.13013841707898      0.37969079229759
  N   -2.06631583467011      0.88554235112057      0.87169121454774
  C   -1.02540393891511      0.08438164621234      1.12756293065504
  N   -1.18497414390931     -1.17047088375497      1.56367660830820
  C   -0.06034033402030     -1.86840503843707      1.77135231190326
  N   1.21149522423425     -1.49605135924330      1.58749882054931
  C   1.40195272760058     -0.24996447365246      1.14088818960950
  N   2.62160096832348      0.24191999870969      0.89280706886527
  C   2.80670259792281      1.48378226738892      0.40854322161190
  N   4.12048949032874      1.90191974143578      0.23904146472844
  C   5.34868637561424      1.19531043226858      0.07811925754769
  C   6.33716019623050      2.21121897483585      0.12097895838601
  N   5.76087759207861      3.46582106516437      0.33785907529285
  C   4.48767074923122      3.25258798769640      0.38971221136265
  H   3.73054015158776      4.00428695110437      0.59618536012145
  C   7.69435380348731      1.94310481997162     -0.07245510969607
  C   8.03832307348039      0.61931611921148     -0.33533973525852
  C   7.07313193537655     -0.39286585219558     -0.39841008763918
  C   5.69394513474940     -0.15511062519198     -0.20476788858817
  N   4.74217108241556     -1.15104758154565     -0.33548835811410
  C   5.00007585835220     -2.51298154255213     -0.49187690191795
  C   5.86119998114231     -3.36924192464178      0.16841691572493
  C   5.73586654827468     -4.66166471573785     -0.42578768825614
  C   4.80310229098029     -4.56873621846279     -1.43013784170436
  N   4.34492815454275     -3.25588636543853     -1.48693400578041
  C   3.40410514288473     -2.78237764005373     -2.42932338944055
  C   3.41191702424316     -3.30026812311706     -3.73737630870989
  C   2.45032467833864     -2.84459008554521     -4.63468376304477
  C   1.53456828875869     -1.87456707220151     -4.21585514404852
  C   1.63379301161759     -1.40972127082971     -2.90456026081214
  N   2.53331560560671     -1.85394726789431     -2.01498613804962
  H   0.94366441322114     -0.64112605072915     -2.54042303986707
  H   0.76843876974120     -1.48325077546773     -4.88732439560790
  H   2.42881945370964     -3.23014380975725     -5.65671437635923
  H   4.16977587936478     -4.02291402013748     -4.04050772817788
  H   4.36761532837739     -5.33265069378145     -2.06659664524073
  H   6.25300554132639     -5.56927537780671     -0.12320827816498
  H   6.50154228867631     -3.08830578953491      1.00038373919857
  H   3.80824437820771     -0.90922092637030     -0.00124100598357
  H   7.38712838627479     -1.41159146645225     -0.62143787802920
  H   9.08399189009816      0.35170808975144     -0.50505264582643
  H   8.42511185225706      2.75081453298123     -0.03281470195959
  C   1.70833628426635      2.33833918787130      0.10927394163085
  C   0.44918176646323      1.80308965540780      0.44108317120069
  C   -0.61682796105932      2.65534085631266      0.09360371937912
  C   0.02506639262033      3.79262760816397     -0.52668825751213
  C   1.40325474144629      3.60491022508759     -0.51686502779405
  H   2.12312004951410      4.29689427759684     -0.94781482434222
  H   -0.47669573945205      4.65119305878751     -0.96680608472486
  N   0.27697826525487      0.55722280033424      0.93588604737559
  H   -0.20292780030777     -2.89090682904390      2.13644932263412
  H   -2.11841235256534      4.81285390857614      0.53093333316557
  H   -6.97661991330065      4.85505428318547     -0.13104237842725
  H   -8.25962897937932      2.70785057107336     -0.52126556542688
  H   -7.08863531510710      0.54506781709563     -0.58077756387623
  C   -5.14868246278946     -1.10158679569195     -0.58704693793854
  C   -5.58722978989116     -1.61961611119266     -1.78945926677639
  C   -6.13835496031690     -2.91222334663398     -1.53809919718941
  C   -5.99984428727681     -3.16338960874806     -0.19330862499075
  N   -5.40737754231591     -2.05825987633557      0.40663320948497
  C   -5.12647762664104     -1.95853020431501      1.79298481262550
  N   -5.25711515814919     -0.75042182627580      2.34589492708506
  C   -5.01378961492229     -0.63844719523759      3.65772769920258
  C   -4.66231310486698     -1.71206905082619      4.47771912766595
  C   -4.52764358834815     -2.97073962910125      3.88445878127368
  C   -4.74702162534116     -3.10292303939481      2.51552915657786
  H   -4.60884333574589     -4.05974136531514      2.01140433044493
  H   -4.23775057229662     -3.84080849877118      4.47854487498019
  H   -4.49294540886467     -1.56383592492281      5.54581113761133
  H   -5.11991607841659      0.36881253804830      4.07425324251215
  H   -6.31007154403995     -4.01539373266496      0.40329746405195
  H   -6.58730299503623     -3.58493414990740     -2.26520368766312
  H   -5.49792680253825     -1.11089582987068     -2.74621638015497
  H   -3.62024124121676      0.04848555703259      0.21217520935087
