21
Coordinates from ORCA-job ./opt_b3lyp_cdz
  O   2.04359908699567      3.49397402545727      0.12651544359909
  C   1.40329057722913      2.31405610797153      0.11970294583913
  C   2.14442438641336      1.14267133117643      0.01451803952534
  C   1.44906497486858     -0.07572385571853      0.01002236230643
  C   2.08780329888539     -1.33552264506027     -0.09160151839242
  C   1.34822739801306     -2.50419175933791     -0.09064263025372
  C   -0.04292492827183     -2.46145059459810      0.01069690165010
  C   -0.70567403142978     -1.23101366990561      0.11267046485582
  C   -2.11425049970291     -1.10054656722053      0.21914519991951
  C   -2.66201033732231      0.15704873235528      0.31422563343615
  N   -1.95296691060365      1.29909925827505      0.31436318777331
  C   -0.62592812350389      1.22167361507593      0.21607645403454
  N   0.07679457300712      2.36329608900280      0.21669876919545
  N   0.04552388431928     -0.04115001406295      0.11187858538445
  H   1.34173998200871      4.16634005016049      0.20666809918825
  H   3.22922700277642      1.15459730574065     -0.06247763315533
  H   3.17455741554635     -1.34360203075532     -0.16967113621022
  H   1.85697735474237     -3.46807534274620     -0.16983996702412
  H   -0.64697788030239     -3.36795925629496      0.01364369745678
  H   -2.72496093871775     -2.00257737779911      0.22269925966143
  H   -3.74793628495094      0.27925659828407      0.39727784121002
