91
Coordinates from ORCA-job ./opt_b3lyp_cdz
  C   -4.22862673004180     -3.22889127082959     -1.35472588437727
  H   -3.88557557111232     -2.78115939523195     -2.30089949379595
  H   -3.35880814197108     -3.35843632827557     -0.68830885426972
  H   -4.63541158200115     -4.22947688741034     -1.57128955946827
  C   -5.29779808297563     -2.35096367911683     -0.69528379846790
  N   -4.74358121340390     -1.00589116853310     -0.51795959871678
  C   -5.49270919302969      0.11120388536126     -0.24220717494057
  C   -6.90020049572606      0.11734255149154     -0.39442495038830
  C   -7.69939749066401      1.25503038423376     -0.19540624003344
  C   -7.13365042741263      2.47866330805898      0.16798104182980
  C   -5.74647751191203      2.50463461611907      0.31644229551977
  N   -4.98708691250852      3.62923095627090      0.65246469777618
  C   -3.76109497984556      3.22482796355447      0.65177835778771
  N   -3.60054087388264      1.85921195948444      0.34625272725610
  C   -4.92680844215251      1.36431556073076      0.14291865600108
  C   -2.35948255488520      1.24620427151353      0.40691331407431
  N   -2.35026002527312     -0.08023810272181      0.64833426371148
  C   -1.21877487169159     -0.77840131145118      0.76467163804821
  N   -1.22344470091329     -2.10239366250484      0.92729388864971
  C   -0.02585284728025     -2.68682428235388      1.00688821461803
  N   1.19368780763157     -2.12596846214952      0.93974667293320
  C   1.22567422646505     -0.80080835870050      0.78031691186506
  N   2.37477434252606     -0.12380477304088      0.67837460660926
  C   2.39936647254344      1.20624633260998      0.44816084627243
  N   3.64582992737764      1.81805636405403      0.41926992683295
  C   4.96411443887297      1.33076604381514      0.18274011199598
  C   5.79706023456332      2.44172682827874      0.45037283881844
  N   5.04827766318877      3.54298715751596      0.87338331080740
  C   3.81697950693131      3.15297135551427      0.83332551282685
  H   2.95950761388462      3.74263202492436      1.14581351084771
  C   7.18407676005271      2.40555889848007      0.29255707661403
  C   7.72845657147864      1.21143270878578     -0.18232253740963
  N   9.13061636663547      1.10005772358189     -0.37599553338227
  C   9.89681673344725     -0.03138899517006     -0.14464190341789
  C   11.20994359606730      0.26402009735230     -0.44385463309872
  C   11.25133689406068      1.62375160169577     -0.88053065246231
  C   9.96342816147175      2.11243219047841     -0.82462264796675
  H   9.55534229159105      3.07831141974519     -1.10646877579517
  H   12.12602381326169      2.18017273531203     -1.21004985774225
  H   12.05080781684205     -0.41929760028289     -0.34694432066201
  H   9.44565704642129     -0.93167773779232      0.26117173365287
  C   6.91029130187416      0.10718467248494     -0.48197732029336
  C   5.50613876545509      0.11413285739727     -0.32289144807546
  N   4.71878260855319     -0.94889199366027     -0.70417173905898
  C   5.23782101180068     -2.27504326088873     -1.04207439400920
  H   6.08858998683638     -2.13687684413239     -1.73057126609042
  C   4.14486331665000     -3.03468642663900     -1.80139032136583
  H   3.83948549927244     -2.48166885959367     -2.70314382570761
  H   3.25321795898416     -3.17464618054187     -1.16568488645906
  H   4.50184702221883     -4.03123853695653     -2.10561909875879
  C   5.71674687104589     -3.05816745515616      0.19208143456376
  H   6.49244069404066     -2.50583072242068      0.74504931491347
  H   6.13486393912371     -4.03629352354470     -0.09909807403328
  H   4.87395417365085     -3.23531634686865      0.88209206269663
  H   3.81110844075070     -0.96033618220762     -0.23393645830559
  H   7.38659868980291     -0.78055076330137     -0.89177789701744
  H   7.79234621261755      3.27037818085116      0.55114002769301
  C   1.20279979420964      1.95387103468635      0.27401696469263
  C   0.02013274532494      1.21485811505042      0.46435026957137
  N   0.01040046216490     -0.11484245017600      0.71201373117975
  C   -1.14419188688490      1.97484698689608      0.24968915452213
  C   -0.64695620282628      3.27978715336541     -0.13693417999803
  C   0.74176881605252      3.26772969447403     -0.12126855667101
  H   1.36918785948110      4.11084828692009     -0.40072385237066
  H   -1.24954016557996      4.13487623434181     -0.43346011662175
  N   -0.02064566414329     -4.07716739350729      1.17464466867355
  N   -1.17864434890498     -4.79839472699844      1.15998110644010
  C   -0.78811624611760     -6.04808182496202      1.34243179311005
  C   0.62870407996156     -6.16086053880586      1.48146367483119
  C   1.09163051033867     -4.87452959611102      1.36651004656275
  H   2.08441107293136     -4.44101506222873      1.40666260895622
  H   1.21816144634362     -7.05901884402036      1.64419578286112
  H   -1.53517071700888     -6.84038547603074      1.36870903040137
  H   -2.90121193156497      3.83006696525835      0.92285264696947
  H   -7.72560895644879      3.37259382359077      0.35517030399177
  N   -9.10427227544787      1.14962749884754     -0.37173794658875
  C   -9.88627940746168      0.05385020026601     -0.04273138985588
  C   -11.19650463775829      0.34398404035131     -0.35927461129196
  C   -11.21971798142752      1.66294513969841     -0.90816066992073
  C   -9.92411224299042      2.13403711272590     -0.89955437834669
  H   -9.50284730271604      3.06635861080960     -1.26309994705440
  H   -12.08776086280704      2.20372307471255     -1.27879458354687
  H   -12.04707664954099     -0.31554323809964     -0.20138771710948
  H   -9.44645971151321     -0.81671314283299      0.43410859855708
  H   -7.39135980673007     -0.79767231920619     -0.71686048109681
  H   -3.81306706779339     -0.98228641324758     -0.09680707121250
  H   -6.14801085079785     -2.27238873709993     -1.39434197197462
  C   -5.78762644768429     -2.96784321497845      0.62585213078774
  H   -6.24588562305314     -3.95549062103850      0.44950780197126
  H   -4.94063782595510     -3.10329386449118      1.31909428243760
  H   -6.53565299814487     -2.32751414185866      1.11912798930535
