92
Coordinates from ORCA-job ./opt_b3lyp_cdz
  C   -5.73584458629757     -3.04713845408167     -0.14526450865882
  H   -4.90865886944708     -3.24033964050969     -0.84952635064534
  H   -6.15920196172810     -4.01789482770348      0.16248550201305
  H   -6.51591604288299     -2.49089504816729     -0.68809791549540
  C   -5.22521028115845     -2.25956697185453      1.07318888015965
  N   -4.69916287232327     -0.94117494989758      0.71544513374338
  C   -5.48186231892193      0.12686497247654      0.34043853075159
  C   -6.88346365687345      0.13409345733481      0.52261480277825
  C   -7.69672072600916      1.24291860914681      0.22740076654187
  C   -7.14991777561789      2.42828766723853     -0.26636422423339
  C   -5.76540896559878      2.45093170246622     -0.44656944527670
  N   -5.01464440961344      3.54222186778275     -0.89150863075336
  C   -3.78612632799415      3.14245968013175     -0.86756523992133
  N   -3.61896067186659      1.81003681378690     -0.44413039718411
  C   -4.93742487635622      1.33532385050609     -0.18258127668203
  C   -2.37744701589179      1.18921672517006     -0.48363204266318
  N   -2.36502536916143     -0.14319039407246     -0.69573110429289
  C   -1.22354300370371     -0.83282343544221     -0.80616144469026
  N   -1.20994649691166     -2.15630844039691     -0.96534945343572
  C   -0.00040835520218     -2.73680685139594     -1.05243990247396
  N   1.20926100332261     -2.15653932731549     -0.96562744363142
  C   1.22314537576392     -0.83305626909556     -0.80643947801756
  N   2.36478352021120     -0.14363816746156     -0.69627142725169
  C   2.37750332792483      1.18876911890285     -0.48418975615675
  N   3.61914737484424      1.80934240452295     -0.44495241661256
  C   4.93756951880912      1.33434368602374     -0.18373002630175
  C   5.76572865620659      2.44978693197624     -0.44785497468391
  N   5.01509196722291      3.54125216878166     -0.89258259501916
  C   3.78649548052738      3.14174457427774     -0.86838234562994
  H   2.92979265905772      3.72176565759926     -1.20015184524808
  C   7.15027329469252      2.42683983120754     -0.26796394984106
  C   7.69693546505664      1.24132749181282      0.22561461499100
  N   9.09678657159592      1.14363020305006      0.44244022464672
  C   9.87621436124136      0.01711851855222      0.23241848913021
  C   11.18185264008756      0.32633507883024      0.54996766714179
  C   11.20463407723849      1.68979895759311      0.97622683232269
  C   9.91359649546074      2.16677119521287      0.89595848551529
  H   9.49270623446077      3.13124374776352      1.16340997609698
  H   12.06914721811989      2.25647618358009      1.31499977198928
  H   12.02993209276911     -0.35044539161758      0.47190052273613
  H   9.43923857260529     -0.89027566990774     -0.17308858936227
  C   6.88350961052545      0.13265827080951      0.52095174413522
  C   5.48186533267001      0.12574013682534      0.33909600950496
  N   4.69901745460802     -0.94215565431167      0.71420192846312
  C   5.22485586281917     -2.26069367984164      1.07170957466279
  H   6.06089109369521     -2.10847840729198      1.77522732559547
  C   4.12525971157590     -3.02584342500037      1.81576175911691
  H   4.48727247157089     -4.01559529464099      2.13570929414572
  H   3.79615466074181     -2.46849471558772      2.70651453388542
  H   3.24839084028619     -3.18197684515545      1.16360833599992
  C   5.73496539197662     -3.04828784235770     -0.14695013504600
  H   6.15815599346664     -4.01918114379132      0.16059731458994
  H   4.90753696471414     -3.24120817985533     -0.85100350918943
  H   6.51503329413702     -2.49219402122338     -0.68994285877924
  H   3.79807831442889     -0.96489126526288      0.23149874993400
  H   7.36069246570093     -0.74795971250590      0.94477928656270
  H   7.75525572069857      3.29454198894215     -0.52455527613593
  C   1.17244748216238      1.92977319417521     -0.33915221913970
  C   0.00002254496988      1.17640591345261     -0.52811068796786
  N   -0.00012935763440     -0.15710559952887     -0.75608187786399
  C   -1.17221778012923      1.92999331078517     -0.33887992703652
  C   -0.69377661364158      3.24827367106449      0.02578609071603
  C   0.69433834497779      3.24814308717317      0.02562522392788
  H   1.31139186521231      4.10196078588987      0.29545335660274
  H   -1.31060713560704      4.10220730978526      0.29575672440608
  N   -0.00056478704235     -4.11031028412864     -1.24890223969407
  C   -1.13854007837186     -4.91356789702129     -1.36668825255244
  C   -0.72103020100841     -6.20379132244253     -1.55367641507916
  C   0.71941710941334     -6.20393275673249     -1.55384781903200
  C   1.13722495616774     -4.91379121537274     -1.36695991282811
  H   2.12324367273843     -4.46846349807215     -1.31007655654454
  H   1.36993168928844     -7.06639912513876     -1.68075242825943
  H   -1.37174447546927     -7.06613008240103     -1.68042564532178
  H   -2.12445822689111     -4.46804702175664     -1.30956814458994
  H   -2.92937646367743      3.72228949475237     -1.19954866456161
  H   -7.75477365650546      3.29610628630015     -0.52286027058645
  N   -9.09654341463445      1.14553175364901      0.44454999736595
  C   -9.87625964147576      0.01917613508185      0.23476213612141
  C   -11.18176031541718      0.32868889122656      0.55258823270666
  C   -11.20415414547650      1.69217974630292      0.97878131421637
  C   -9.91303236778119      2.16887134107401      0.89819807900954
  H   -9.49187549282182      3.13326758748200      1.16550454801744
  H   -12.06846981610978      2.25905971541180      1.31771875625595
  H   -12.03000213254121     -0.34791414993799      0.47474679685734
  H   -9.43956971456593     -0.88833295042124     -0.17079591536174
  H   -7.36073837478508     -0.74639581932613      0.94660704138503
  H   -3.79834505593800     -0.96415086931017      0.23252633400234
  H   -6.06101525584665     -2.10710516600733      1.77692920596684
  C   -4.12557983245948     -3.02491368616281      1.81698913236523
  H   -4.48771719641339     -4.01456980267201      2.13709156650359
  H   -3.79611455274447     -2.46758183529753      2.70761948265075
  H   -3.24892080892830     -3.18127158824232      1.16460534300278
