93
Coordinates from ORCA-job ./opt_b3lyp_cdz
  C   5.75116581612039      3.21555787436440     -0.51156282736860
  H   4.89542629924362      3.34377010639043     -1.19586951956412
  H   6.18505243562711      4.21004421217133     -0.31337528706617
  H   6.51071820095887      2.60868715620991     -1.02873257682758
  C   5.29034496180427      2.54766838623374      0.79496467057501
  N   4.75779155458944      1.20042054506034      0.58302310619839
  C   5.52958558821436      0.10501110332160      0.27217522792513
  C   6.93608232742195      0.11280107516813      0.41614973694014
  C   7.74481051527331     -1.01425440742680      0.18702694419353
  N   9.14968089935076     -0.89879373169716      0.35854404265151
  C   9.91988408910536      0.20913516788023      0.04271421965738
  C   11.23437362230370     -0.07360941635120      0.34838109309144
  C   11.27244736895521     -1.40054163926541      0.87662380899995
  C   9.98114158391559     -1.88347639439829      0.86708280689688
  H   9.57017101582752     -2.82513409514595      1.21818643479206
  H   12.14723023457156     -1.93893025279765      1.23465295486084
  H   12.07802470803209      0.59616779463679      0.19661701809844
  H   9.46956221105978      1.08252896035373     -0.41895334655779
  C   7.18878093969526     -2.23495104809715     -0.19855388134314
  C   5.80026330424424     -2.27241597405410     -0.34041174012232
  N   5.04407396417592     -3.39508261676098     -0.68746400366402
  C   3.81515052172259     -2.99680239141675     -0.66768418477604
  N   3.65145946348270     -1.63764801037926     -0.33899946820751
  C   2.40700015359154     -1.02422498805919     -0.39478385357014
  N   2.38726813991092      0.29479388632847     -0.67221504458092
  C   1.24400266758552      0.97852346490418     -0.80017508948085
  N   1.22672023058951      2.29779917883809     -1.02040769023043
  C   0.02193498616321      2.88953926226324     -1.12007643334968
  N   -1.18152689792340      2.29692026843568     -0.99630669657437
  C   -1.19867426032696      0.97938899619495     -0.78289480242613
  N   -2.34024418942975      0.29132472451117     -0.64574680675524
  C   -2.35125624551906     -1.02969693624495     -0.37835968577018
  N   -3.59066675113470     -1.65493344045976     -0.32592620077010
  C   -4.91666578518479     -1.17487514188096     -0.11497270528793
  C   -5.73413388084670     -2.30704688009110     -0.33820193246219
  N   -4.96975582864379     -3.41557611392644     -0.71122019468229
  C   -3.74387757581880     -3.00800298017092     -0.68426085775768
  H   -2.87865986047137     -3.59956169573255     -0.96986979439764
  C   -7.12248321516523     -2.28268747736610     -0.19051832837978
  C   -7.68551780190085     -1.07563906758726      0.22624633358702
  N   -9.09052595139481     -0.97422285918519      0.40554475979349
  C   -9.91310756026097     -1.97620177537623      0.89433187406951
  C   -11.20774847469350     -1.50283193778047      0.91957307034017
  C   -11.18102411788106     -0.16391537278167      0.42178227090516
  C   -9.86971040921912      0.13512997556665      0.11796842608170
  H   -9.42729598010503      1.02200945712000     -0.32527952162190
  H   -12.02995017379536      0.50311086632369      0.28844080559912
  H   -12.07736238428802     -2.05550238803449      1.26830776512436
  H   -9.49420532328147     -2.92268658764053      1.22232680516091
  C   -6.88390799664659      0.05158158645946      0.48014397261002
  C   -5.47825318804963      0.05650150069209      0.33095187298828
  N   -4.70971278965554      1.14696699193458      0.66764795795089
  C   -5.25032929374927      2.48118117365602      0.93297765550962
  H   -6.10702936453570      2.36628651413979      1.61845162988988
  C   -4.17472733597275      3.29129949840151      1.66398656221562
  H   -3.87382559268587      2.78976593175753      2.59688947166907
  H   -4.54530894512856      4.29874220750076      1.91077949652212
  H   -3.27919386236427      3.40475762235555      1.02877696763026
  C   -5.72253160094206      3.19554987557561     -0.34451477825531
  H   -6.48134070300851      2.60419635894997     -0.88041149580381
  H   -6.16094119700750      4.17923205588434     -0.10651978006209
  H   -4.87172130594673      3.35438536564101     -1.02862460909256
  H   -3.79569550620342      1.14750327481247      0.20896947552918
  H   -7.37437886472828      0.95102475058420      0.84518247526353
  H   -7.71745589666744     -3.16612362416842     -0.41480582760923
  C   -1.14379057876352     -1.76020801514444     -0.19215270035230
  C   0.02757357471809     -1.01440750156680     -0.41877804156852
  C   1.20278525835946     -1.75798469322996     -0.19988609020816
  C   0.72689646370666     -3.05545350713237      0.22846383793066
  C   -0.66300032608421     -3.05687934962251      0.23253846535169
  H   -1.27703341145309     -3.89831134861268      0.54490933321536
  H   1.34385862219831     -3.89574408797533      0.53786031437187
  N   0.02410953003026      0.30647253609067     -0.70628448154211
  C   0.02396523923826      4.38397913690482     -1.37629747041770
  H   1.06856192641558      4.64495252968082     -1.60612025717445
  C   -0.86728517698524      4.75101430242547     -2.57347135681325
  H   -1.91433855618952      4.46930946445255     -2.38326547085974
  H   -0.53764127870913      4.24022841891687     -3.49274381069090
  H   -0.82493671799088      5.83691236201779     -2.75569918614177
  C   -0.40061069432641      5.14201882827155     -0.10385449527340
  H   -0.33477795543664      6.22891940123999     -0.27336526788372
  H   0.24942330334570      4.89205727259331      0.75026371675456
  H   -1.44018362661789      4.89989147135654      0.16936557005264
  C   4.97460691774558     -1.14160731250324     -0.14059010913292
  H   2.95461469196076     -3.60164642212067     -0.93891647754474
  H   7.78905439711420     -3.11918984335961     -0.40477414215180
  H   7.42098814073512      1.02458585059115      0.75728205251617
  H   3.83831095462418      1.17916211162273      0.13612737674618
  H   6.15087067047248      2.46540683437975      1.48048349515559
  C   4.21168636449421      3.37861167875158      1.49806010587542
  H   4.57963972663681      4.39518250777398      1.70882790284954
  H   3.91474499179304      2.90917090921320      2.44889167572009
  H   3.31529874257663      3.46738958588920      0.86003333970814
