92
Coordinates from ORCA-job ./opt_b3lyp_cdz
  C   5.71494278154827      3.23348859347743     -0.24905551630253
  H   6.49938008834033      2.66319897546094     -0.77049122764697
  H   4.89451125715856      3.40961741503392     -0.96565813601587
  H   6.13678321851098      4.21128810954976      0.03851710218755
  C   5.19221518949943      2.47555059296631      0.98334142839646
  N   4.67486256139448      1.14730710739202      0.65612828276488
  C   5.46819693215643      0.07171407580535      0.32364008119626
  C   6.86733293830083      0.07529340949382      0.51876853850591
  C   7.68575435761418     -1.04138146507429      0.26669276031029
  N   9.08405002196527     -0.93255672705124      0.49453183662732
  C   9.86424998607732      0.18484639605372      0.24514046398575
  C   11.16719914527087     -0.10862134980973      0.58905473919580
  C   11.18684664283388     -1.45272155103962      1.07245272647661
  C   9.89670993722160     -1.93420632341146      0.99914721487755
  H   9.47336705525144     -2.88708480277353      1.30205671791017
  H   12.04826601424667     -2.00366523906712      1.44359638858799
  H   12.01528696609294      0.56569131326682      0.49161450246311
  H   9.42988812814252      1.07356690617801     -0.20243235499500
  C   7.14738114030896     -2.24278689253701     -0.19367499274897
  C   5.76357761931200     -2.27594597716551     -0.38610413450417
  N   5.01838565395154     -3.38148402634281     -0.80185452760036
  C   3.78847768746775     -2.98081619367278     -0.80163042090463
  N   3.61729395979042     -1.63811661252440     -0.42256508296057
  C   2.37360883470948     -1.01578843251105     -0.49486758812890
  N   2.36591005115607      0.30307782537818     -0.76523135055439
  C   1.22067626406760      0.99223793992270     -0.91149209620251
  N   1.21308416134612      2.29962091437319     -1.12998125099863
  C   0.00000244604506      2.89917057694309     -1.26423411032181
  N   0.00003136741326      4.22464075854060     -1.55623924881342
  C   -1.23299640160525      4.98895858439046     -1.68378204537367
  H   -2.09143955106054      4.31133832141421     -1.68514481282578
  H   -1.33340589588630      5.70443865558102     -0.84730399634735
  H   -1.21316889802241      5.56388728919519     -2.62500253616162
  C   1.23310312302988      4.98881153807573     -1.68423261679599
  H   2.09146943075577      4.31109529009795     -1.68582367630430
  H   1.33385573645581      5.70433779543573     -0.84783569155468
  H   1.21304293743465      5.56367867199547     -2.62548645996679
  N   -1.21310738823952      2.29978406284489     -1.12951492276756
  C   -1.22079223228065      0.99240159784717     -0.91102947849136
  N   -2.36606381165532      0.30339763115550     -0.76433609093017
  C   -2.37383932995474     -1.01546601781077     -0.49396370150017
  N   -3.61758004791084     -1.63762972693110     -0.42118851729621
  C   -4.93173250094417     -1.15349020454097     -0.16331796279790
  C   -5.76393371330590     -2.27517736736101     -0.38389957456444
  N   -5.01904943367009     -3.38080626924252     -0.79995992061684
  C   -3.78908808078421     -2.98030177013176     -0.80020469232051
  H   -2.93505780710611     -3.57168502460466     -1.11892777667545
  C   -7.14765698959105     -2.24184052949269     -0.19091831907636
  C   -7.68568960201039     -1.04037746083519      0.26969757840463
  N   -9.08388038169361     -0.93137615473472      0.49809609439729
  C   -9.86403242666134      0.18613663462506      0.24904665165312
  C   -11.16688342446490     -0.10716922410403      0.59347043920026
  C   -11.18651572538645     -1.45128043949097      1.07683834564928
  C   -9.89647143721213     -1.93293291956950      1.00300658708209
  H   -9.47313360507169     -2.88587557621686      1.30572134073251
  H   -12.04785997506200     -2.00212134798476      1.44830881697160
  H   -12.01492106635395      0.56725791710847      0.49638605943479
  H   -9.42973208126838      1.07481251414617     -0.19867439243174
  C   -6.86702320805265      0.07618506991847      0.52147634183320
  C   -5.46796639510908      0.07242551487606      0.32578595762355
  N   -4.67437620950107      1.14791221344885      0.65798327992168
  C   -5.19147491103423      2.47615289251599      0.98556992407801
  H   -6.01965982472050      2.34630002571595      1.70284683733704
  C   -5.71468415625134      3.23428867023582     -0.24650201978642
  H   -4.89455251194190      3.41049321572962     -0.96342946056746
  H   -6.49936454987107      2.66410711593195     -0.76768943173169
  H   -6.13636395560907      4.21206362480288      0.04138999832842
  C   -4.08052055725169      3.25717995318931      1.69588141173170
  H   -3.20863185443875      3.38393618284566      1.03072125520277
  H   -4.43298271216972      4.25911840793532      1.98813280229374
  H   -3.74677891176189      2.72512420529051      2.60022965099159
  H   -3.78195721292956      1.15237658911459      0.15704850934989
  H   -7.33884070908735      0.97085301462721      0.92152531164906
  H   -7.75796355382337     -3.11534562749769     -0.41326109374068
  C   -1.17104937288082     -1.75287677104299     -0.32224519199185
  C   -0.00012353756729     -1.00903356206577     -0.54398609345622
  C   1.17078482700571     -1.75303650635561     -0.32269166356723
  C   0.69308009222971     -3.05767398210886      0.09781061057954
  C   -0.69336212368883     -3.05757783860599      0.09807967317780
  H   -1.31167171032454     -3.89846292931518      0.40359158349892
  H   1.31139169029190     -3.89864424361222      0.40308402646057
  N   -0.00008933076383      0.31366760897858     -0.83494478044390
  H   4.43426277567242      4.25871079584557      1.98602942717323
  C   4.08161861384073      3.25675504984201      1.69403500752490
  H   3.74821555024433      2.72482555894357      2.59858245356173
  H   3.20946018850134      3.38349817577465      1.02922759070080
  C   4.93161099512010     -1.15414410204596     -0.16522013126614
  H   2.93424614365503     -3.57209389411273     -1.12001045823679
  H   7.75748332337208     -3.11637818666284     -0.41623999949157
  H   7.33942555264729      0.96990898043987      0.91861065759123
  H   3.78224692802840      1.15183037276296      0.15554362095831
  H   6.02069722121326      2.34572324511869      1.70027903171013
