90
Coordinates from ORCA-job ./opt_b3lyp_cdz
  C   -5.60398148552312     -1.78855054724683      1.75121271154643
  C   -4.49414867881000     -2.56112972684260      1.09083204592059
  C   -3.46023956968440     -3.14000133267916      1.84180946123636
  C   -2.45687423872211     -3.87719635175590      1.21253577470004
  N   -2.42318581867630     -4.10325803350811     -0.10988872440612
  C   -3.39509426135395     -3.54226853348494     -0.83378024639369
  C   -4.42875957207826     -2.75969459592450     -0.30039588171196
  N   -5.39651163757220     -2.21059463682762     -1.19613830515854
  C   -6.19322947105109     -2.97745551000537     -2.03566613919022
  C   -6.89990403806586     -2.13182488036995     -2.86190941153947
  C   -6.50153697598315     -0.79853375561011     -2.55228173422373
  C   -5.57259390714376     -0.86365737708549     -1.52615511998520
  N   -4.84841073823178      0.14442184948060     -0.88137917970275
  C   -5.39726871162942      1.28858590903338     -0.32642976861304
  C   -6.79661506764465      1.39565017006004     -0.13681920038040
  C   -7.41709497055124      2.51004882387317      0.43199322670359
  C   -6.67611967303503      3.60697987948999      0.86404192579641
  C   -5.29310559270749      3.53251490374779      0.69713443291759
  N   -4.37911667743865      4.52114244528270      1.06822129980565
  C   -3.22467564300042      4.06823664930347      0.71510226987526
  N   -3.25333058802469      2.79790322098872      0.10783642506626
  C   -4.63961563452391      2.41399635129895      0.11261112381978
  C   -2.08660753405730      2.15380687136304     -0.27743739501913
  N   -2.17539188396589      0.82668616911754     -0.47679735642880
  C   -1.11155759223781      0.06424225980853     -0.74905220555505
  N   -1.21366637135027     -1.25462984676546     -0.91840435037418
  C   -0.06978491975004     -1.92435051685188     -1.10218989188482
  N   1.17820602985768     -1.43834677082725     -1.16857925475513
  C   1.30285301911057     -0.11353997862709     -1.04600331263951
  N   2.49152775167726      0.49992735870232     -1.11990144382544
  C   2.61813778812310      1.83449754990462     -1.00488932601503
  N   3.90243185533389      2.35269417951972     -1.12697165711451
  C   4.13090763720964      3.66409864942124     -1.58054192376376
  N   5.37716434087990      3.99767294823900     -1.64303918068506
  C   6.08124772917431      2.87721141722335     -1.19662074923623
  C   5.20289378800467      1.80383979331752     -0.89522972048795
  C   5.70606157785780      0.56391411200179     -0.41104991327995
  N   4.88590380418069     -0.51166799141689     -0.08642924959445
  C   5.34393349889909     -1.83076830905246      0.06871472203448
  N   4.73436898673959     -2.65255403476696      1.01612271577199
  C   3.63406212045036     -2.31407198714909      1.85922732061055
  C   3.77294887779708     -1.41977479762837      2.93774250084974
  C   2.61865163335113     -1.19726108146501      3.70235728150236
  C   1.42813062142576     -1.85368932853299      3.38559958162360
  N   1.30004801207431     -2.71484675424463      2.36542875202880
  C   2.39441921213135     -2.92531693260890      1.62468119792475
  H   2.29910352139314     -3.61604874114313      0.78170819935216
  H   0.52933460559713     -1.68169264159885      3.98779836229746
  H   2.65473432923093     -0.51989044569393      4.55935196963097
  C   5.07994734522562     -0.75143236836848      3.26520520506441
  H   5.27608136169127      0.07910466338931      2.56786850032912
  H   5.07169401260361     -0.34953966842398      4.28873812894767
  H   5.92044378540585     -1.45511889913663      3.16428116073315
  C   5.28237202140549     -3.92435933357819      0.92164854070508
  C   6.25637393348251     -3.90463724403005     -0.05201362141444
  C   6.29020389860443     -2.58901155271994     -0.60176508608155
  H   6.92066275892926     -2.23402197971009     -1.41252149214248
  H   6.87897558377384     -4.74705381799460     -0.34457085407229
  H   4.93242260461217     -4.71853557126969      1.57476803668920
  H   3.93934046602750     -0.42308632979779     -0.47515238682271
  C   7.10679783175304      0.51125316809304     -0.23657510139874
  C   7.95742497358143      1.58325877712276     -0.53142137867103
  C   7.46495038110968      2.78628229234676     -1.02898452265018
  H   8.10277362141310      3.63610705164491     -1.27174203400092
  H   9.03010173382962      1.45838377880749     -0.36614456082942
  H   7.53382712196658     -0.41521442060059      0.14489597193118
  H   3.29909097716824      4.28279064766868     -1.90365378505801
  C   1.48688128563319      2.67280716700373     -0.78344721936800
  C   0.25812900054450      1.98708913834330     -0.69766699801246
  C   -0.83530436003995      2.83406786259538     -0.42280607913859
  C   -0.23888887915241      4.15191018382185     -0.35797780007565
  C   1.13345797500895      4.05431175886893     -0.55418536421248
  H   1.81385055860712      4.90124810344987     -0.52516495865867
  H   -0.75693690513497      5.09429520464727     -0.20334254708091
  N   0.15145456995076      0.64770172123000     -0.83600236490830
  H   -0.17749844885678     -3.00974928658795     -1.19405374294109
  H   -2.28008597461392      4.56246242613360      0.90865069922278
  H   -7.12496934494344      4.49366161476853      1.31125928881164
  H   -8.50428251487246      2.50533585058151      0.53963114551360
  H   -7.40804019172642      0.55146765709066     -0.45355922469334
  H   -3.82924209587907      0.07667158413164     -0.82698759264307
  H   -5.72710594362124     -2.10162026428603      2.79862047058988
  H   -6.84461992199585      0.11820041703875     -3.02532347073943
  H   -7.62418221349128     -2.43689092542503     -3.61370587830854
  H   -6.18527900005525     -4.06034462277669     -1.95186719421533
  H   -3.36198614672933     -3.70171649564882     -1.91653898178596
  H   -1.63174864804595     -4.29676156826974      1.79699233280057
  H   -3.44535569965494     -3.02072936135111      2.92820899573770
  H   -6.55837831320243     -1.93073668377049      1.22281398028497
  H   -5.39346035078744     -0.70681787908972      1.74365054611186
