98
Coordinates from ORCA-job ./opt_b3lyp_cdz
  C   2.47919280377106     -1.47409350935484     -7.27476093913026
  C   3.41849250812210     -0.95921085903429     -6.20892217624934
  C   3.91182584101540     -1.83024544891023     -5.22392491680520
  C   4.79323089725439     -1.36500492754770     -4.24370042362586
  N   5.30571514806400     -2.27920150522501     -3.27628537749802
  C   5.82428896487516     -3.52460767240154     -3.57932485602729
  C   6.16065874483937     -4.16345029872695     -2.40357009807670
  C   5.82725254746284     -3.28393141763032     -1.33394908386042
  C   5.30635634488017     -2.12714625901174     -1.88632414438547
  N   4.74625394463760     -0.98981716013357     -1.27708017403746
  C   5.51800965245302      0.00333066166603     -0.68477243867750
  C   6.92445249898298      0.01766066680604     -0.80314292485577
  C   7.72448740866104      1.03962514648418     -0.27438288203138
  C   7.17010677717979      2.11620926080814      0.41289693545632
  C   5.77920198257832      2.12688798089964      0.54999833278723
  N   5.01047625276455      3.12131096658238      1.16025522086634
  C   3.78283350150262      2.75150636256870      0.99893698755789
  N   3.63067187915840      1.53014025261946      0.31568092724193
  C   4.95818191195530      1.09495624584881      0.02940695174845
  C   2.38737844918286      0.93030309335865      0.15732793351826
  N   2.36208834503058     -0.41591192029800      0.11347352950934
  C   1.21591099604309     -1.10381444413960      0.04016936244587
  N   -0.00126990515405     -0.41654703343892     -0.00028282209390
  C   0.01202741043482      0.93335707785615      0.00159954988418
  C   1.19118062364376      1.69871315890530      0.08388791482081
  C   0.72702258393218      3.06756172988651      0.04479868981837
  C   -0.66096924108522      3.08131231626744     -0.03588582627103
  C   -1.15186867342995      1.72191957203254     -0.07857943781058
  C   -2.36286084799293      0.97734556829502     -0.15432449313436
  N   -3.59417327713995      1.60188989407680     -0.31138200802989
  C   -3.72208030618631      2.82779348964471     -0.99153985693668
  N   -4.94218076018471      3.22181279839014     -1.15266050956382
  C   -5.73052475849464      2.24088349927462     -0.54565151657158
  C   -7.12149331595634      2.25679249939948     -0.40973176735222
  C   -7.69726884978567      1.18931948189524      0.27411168540546
  C   -6.91766228224659      0.15058437199589      0.80074518841290
  C   -5.51167306447956      0.10929969325461      0.68349925407689
  N   -4.75982369178855     -0.90026198852119      1.27393301552515
  C   -5.34294018356843     -2.02981715520540      1.87626166792643
  N   -5.34899588294245     -2.18852465629398      3.26547112769028
  C   -5.89180820889927     -3.42541644929233      3.56101201142218
  C   -6.23688582181180     -4.05212863803547      2.38128621475223
  C   -5.88420684690356     -3.17377576770998      1.31689112733223
  H   -6.00151204937903     -3.34539285611127      0.24934699065971
  H   -6.70342859377196     -5.03086378432382      2.29566554464847
  H   -6.01866586591795     -3.73325689501953      4.59484124697817
  C   -4.82196463376987     -1.28909250326061      4.23884392015388
  C   -3.95373486560633     -1.77620769901826      5.22018734143061
  C   -3.44745729325429     -0.91976826241533      6.21136456800154
  C   -3.81474086352941      0.42966403734798      6.18070683933608
  C   -4.67925948222090      0.93839230500708      5.19579882330804
  C   -5.18648653654814      0.06538554818490      4.22850416918445
  H   -5.88304029918933      0.43076863975222      3.47300287356158
  C   -5.05664731462684      2.40159728336938      5.19379686760000
  H   -5.48301987829004      2.70627891906568      6.16434542386387
  H   -5.79601687000433      2.62781083461211      4.41150189312715
  H   -4.17365896458232      3.03973165973966      5.01641685044719
  H   -3.42022921795782      1.10654354816489      6.94488079891820
  C   -2.52204553057932     -1.45794293737281      7.27786273358368
  H   -3.04051360965565     -2.18569138543347      7.92576846417544
  H   -2.13557841327615     -0.65311157495643      7.92074756366639
  H   -1.65881111198586     -1.98145818867697      6.83371137256618
  H   -3.66093762373506     -2.82856722101280      5.20121221353237
  H   -3.85044743777286     -1.04456848011583      0.82711993152785
  C   -4.93010507989848      1.19179276312159     -0.02722445971335
  H   -7.40383271025899     -0.67751870087951      1.31767687568312
  H   -8.78069214573610      1.14900884505709      0.40924914690362
  H   -7.70308018272512      3.08317360250939     -0.81840315089496
  H   -2.84309283097326      3.32707062097337     -1.38901368274440
  N   -2.36416977724715     -0.36920761335434     -0.11398323148688
  C   -1.23169640628220     -1.07968759188530     -0.04249511013682
  N   -1.22997654336582     -2.41691168813543     -0.02517770107100
  C   -0.02665459536005     -3.00451699424088     -0.00365924963322
  N   1.18796685568671     -2.44072230071280      0.01937224317021
  H   -0.03742154465689     -4.09942553247918     -0.00506150266843
  H   -1.26529428327559      3.98492326768794     -0.05211643033003
  H   1.34898976548459      3.95907044091242      0.06365273799709
  H   2.91396861750733      3.26668186071339      1.39836934654428
  H   7.76794719584935      2.93003686593159      0.82327636674880
  H   8.80681263895218      0.97866670348170     -0.41057769919547
  H   7.39393995847147     -0.81824598600290     -1.32293920983669
  H   3.83448585578967     -1.11775737781330     -0.83018401620486
  H   5.94423372987967     -3.46284759734311     -0.26757193237180
  H   6.60907095987104     -5.15112656385589     -2.32395034375029
  H   5.94265596706075     -3.82962494225693     -4.61500246267323
  C   5.18437886629885     -0.01805568468691     -4.22838961960286
  C   4.69076087889127      0.86938027103112     -5.18957536356688
  C   3.81220246988891      0.38262714455067     -6.17315609564636
  H   3.42731337886027      1.07109209837640     -6.93187926685688
  C   5.10013369244918      2.32398940133755     -5.18482964294159
  H   4.22526783173350      2.98333200498536     -5.05152848697611
  H   5.57416263522411      2.60889345507869     -6.13938838910353
  H   5.81158183238668      2.54155317748346     -4.37471348630676
  H   5.89040988236214      0.33009962547878     -3.47355252715179
  H   3.59793140397862     -2.87656356252772     -5.20835432559639
  H   1.61695218229917     -1.99919258862720     -6.83073035027645
  H   2.98669196804182     -2.19455225318781     -7.93940053565666
  H   2.09206388809040     -0.65662583615350     -7.90111983009824
