90
Coordinates from ORCA-job ./opt_b3lyp_cdz
  C   -2.53856077160571     -1.65898474518561      3.78908203547214
  C   -2.40131758079122     -0.26013399331082      3.24176421793496
  C   -1.19378683814958      0.44879414940981      3.33406522902109
  N   -1.00855857817259      1.69302578025866      2.87117191405931
  C   -2.04484487116327      2.29594057416655      2.27862309265118
  C   -3.30390712115054      1.69099001039350      2.13762267354826
  C   -3.47753091824387      0.39318944411077      2.62839803691768
  H   -4.45095300760188     -0.09292010827516      2.54021076551815
  N   -4.36879494171139      2.39093734009358      1.51206667893881
  C   -4.78410986883402      3.67242632838086      1.84388176883602
  C   -5.82160139510044      4.02069849485445      1.00833812943968
  C   -6.03487753041164      2.93460400426414      0.10707759701913
  C   -5.13415954147800      1.93599850179080      0.43360423019142
  N   -4.80593425877081      0.70615593907826     -0.15077918246030
  C   -5.70139974484777     -0.27379837957875     -0.55546977879100
  C   -7.09103275669976     -0.18453385845595     -0.33385981300415
  C   -7.98661222860994     -1.19417688714727     -0.71532954966294
  C   -7.55385893186706     -2.35631668343250     -1.34766378717520
  C   -6.17834640803189     -2.47899343724906     -1.56939141625675
  N   -5.51352934140188     -3.57903506020741     -2.11700705435219
  C   -4.25521193065466     -3.28963577754979     -2.04215840567457
  N   -3.98565190566053     -2.02589895043495     -1.48922364290901
  C   -5.26238514956758     -1.46632471462177     -1.19217214536953
  C   -2.69036932779096     -1.53244578868333     -1.36321888545148
  N   -2.53447683781945     -0.20091516165597     -1.48480653029101
  C   -1.33499061607459      0.38715171091564     -1.37863922508491
  N   -1.17643686502032      1.70748532485807     -1.51167537418252
  C   0.08022748849074      2.16429988748143     -1.41377622616794
  N   1.20173204055536      1.47723345336828     -1.16483725512508
  C   1.06228183438360      0.16285387116138     -0.97559218924845
  N   2.09044972122045     -0.61945010202295     -0.63143653026124
  C   1.95840814334755     -1.94288575546393     -0.42377446532059
  N   3.07248714348781     -2.60308038281518      0.07311575838142
  C   2.95393864425553     -3.81581167228011      0.78268654166617
  N   4.04924531537116     -4.22735870427021      1.32538960860972
  C   5.01163073766656     -3.27167486014578      0.98927393837451
  C   4.44754611725141     -2.22161350862787      0.21848473034770
  C   5.26460583622395     -1.16043640372866     -0.26395473450198
  N   4.79910813741540     -0.13730319451323     -1.07498166717792
  C   5.60205258964490      0.85813715646009     -1.64208405039569
  N   5.41566984842085      2.21476173678338     -1.35516081627031
  C   4.40897047473566      2.78942605439020     -0.53161896393159
  C   4.16567853034144      2.33130097094452      0.76860393067230
  C   3.14926156625600      2.92505624701544      1.52344872134431
  C   2.44216519150980      3.98073796354984      0.92401978481054
  N   2.66723634342063      4.43982881486499     -0.31214836924956
  C   3.62731423867230      3.84231994932368     -1.02563953364650
  H   3.78206420244023      4.20222538715954     -2.04761744811863
  H   1.63896417194170      4.47698423346962      1.48144283401556
  C   2.80765018511094      2.47199073569797      2.92146064936011
  H   3.31780975991432      1.53001833932752      3.17362906598437
  H   3.10984834427581      3.22561609040239      3.66942399581599
  H   1.72003280172659      2.32103071330493      3.02801008306129
  H   4.76504333391131      1.51928202934492      1.18480538809770
  C   6.30936919598234      2.95131610140027     -2.12068978821846
  C   7.07694048874832      2.07939355556347     -2.85988092580236
  C   6.62279856963790      0.75885056181685     -2.57131597361036
  H   6.98724283376991     -0.17333145930148     -2.99592339550385
  H   7.87968197854168      2.35932714232658     -3.53802912491695
  H   6.33039586350598      4.03420439989626     -2.04389644203062
  H   3.78471289689291     -0.00870574863820     -1.06263006623256
  C   6.62355736889235     -1.22218800692687      0.12405829733565
  C   7.15621893878954     -2.25927832705798      0.89513422235902
  C   6.36175187704923     -3.31344208532460      1.33997835790204
  H   6.74861670108212     -4.14470735282458      1.92916214074856
  H   8.21941606904186     -2.23191169776567      1.14501928476180
  H   7.27714738481489     -0.41847797178133     -0.21460075958607
  H   1.98777444313642     -4.29522278355138      0.89292889238059
  C   0.71033322340114     -2.60126027324433     -0.65506889085319
  C   -0.34717269964790     -1.73304167615947     -0.98969032497510
  C   -1.58476560014341     -2.39460256825991     -1.12503216481011
  C   -1.27332240009203     -3.78305447639594     -0.87916448151988
  C   0.08641545791315     -3.90764166872790     -0.61672538889383
  H   0.58336273036637     -4.85721162303059     -0.43570190712673
  H   -1.97540889630589     -4.61309609587770     -0.89001857080617
  N   -0.20781581306205     -0.39608552560139     -1.12116994387187
  H   0.21236212790950      3.24354073951097     -1.54160826191797
  H   -3.44259611263360     -3.90436012505569     -2.42099542545778
  H   -8.23158784539011     -3.15598472942491     -1.64655592889000
  H   -9.04961940928655     -1.05210190657763     -0.50687284050734
  H   -7.47303762626234      0.70946779002485      0.15778180099304
  H   -3.91574988073178      0.67710710602485     -0.66088588025075
  H   -6.74490639490847      2.89411302047479     -0.71479646850189
  H   -6.37112805093632      4.95867843387981      1.03734856573653
  H   -4.32219321926868      4.20121311198514      2.67251466176368
  H   -1.87877138889527      3.30401438422543      1.88654848741974
  H   -0.32498730728969     -0.01896344752371      3.81112421978386
  H   -2.76289380435965     -2.38169978670670      2.98644919193944
  H   -1.61496108284990     -1.98600039264890      4.28947181962598
  H   -3.36113055848691     -1.72254486399742      4.52055050622037
