134
Coordinates from ORCA-job ./opt_b3lyp_cdz
  C   -0.76477392738601     -3.33495671501986     -3.03753673186558
  H   -0.34367493619394     -3.98725406118618     -2.25682060565575
  H   -0.96046715437874     -2.34794040781033     -2.58768042715974
  H   -1.73571216838012     -3.76311134934407     -3.33668590284953
  C   0.16873168910299     -3.21712381115378     -4.26482482105854
  C   1.53693442462129     -2.64568946457660     -3.83637428330002
  C   2.09753037590670     -1.49899733995780     -4.42465078762212
  C   3.36188622734080     -0.99866592045561     -4.06386022028697
  C   4.07819921321507     -1.68279769871992     -3.06915823540168
  C   3.53125786224728     -2.81350601283775     -2.45098888734167
  C   2.27180143127233     -3.29046494443902     -2.82922531327273
  H   1.87602371255729     -4.16961835298657     -2.31886024879838
  N   4.25870140468857     -3.49729678677258     -1.42783899410553
  C   4.51990932538022     -4.86206436441034     -1.41651506583894
  C   5.15736805934753     -5.17259136070053     -0.23728291484497
  C   5.26466016445811     -3.97168099652145      0.52787144097491
  C   4.70770095509519     -2.95234721913246     -0.22678803149534
  N   4.46999037524503     -1.60382728726331      0.05770298678853
  C   5.37662519738900     -0.67666319404991      0.56497118642660
  C   6.67856087409631     -1.02446611155347      0.97376034408788
  C   7.60559121826695     -0.06675632443498      1.41518676952807
  C   7.30019478859807      1.29132176610502      1.45734851054981
  C   6.00908335796806      1.66177349638369      1.06596834211303
  N   5.49984189972017      2.95364018496808      0.91677246459630
  C   4.30087763175352      2.79972162860709      0.44966960800440
  N   3.91789628672355      1.45669511777791      0.30034963193088
  C   2.59199260015711      1.10314743708358      0.03029322878949
  N   1.99445663447676      1.86768790897940     -0.90408883340081
  C   0.71595031793572      1.67693749665435     -1.24333533187527
  N   0.09338611951190      2.43659122820114     -2.15482175578339
  C   -1.19115151958739      2.14475929876036     -2.39175547801934
  N   -1.96386080512452      1.20506951920571     -1.83079456543108
  C   -1.37273588857859      0.42938554635702     -0.91581806509252
  N   -2.03587672774449     -0.53359181318051     -0.26401846483907
  C   -1.46085954806929     -1.27889967640291      0.70029565945571
  N   -2.24864692038643     -2.25068209883448      1.30298600772237
  C   -1.68805107311989     -3.42362525061603      1.84300934613318
  N   -2.55169210503552     -4.24828313940817      2.33571861207767
  C   -3.79353676437387     -3.63231813624696      2.15950551478318
  C   -5.02808753686214     -4.11439588808883      2.60161519537871
  C   -6.13701752126654     -3.30644204388290      2.36284752195069
  C   -6.02221024457242     -2.08026110843804      1.69677324561688
  C   -4.79106883923003     -1.57089731432693      1.22654849908576
  N   -4.69665072954530     -0.34345691311570      0.59175542717598
  C   -5.79157205105885      0.44159469753600      0.20039191149667
  C   -6.89361539145491      0.16577908152638     -0.59191932313258
  C   -7.63391771911114      1.37496853156682     -0.73655254039146
  C   -6.95498570618011      2.35900072872433     -0.04969892654942
  N   -5.83551054869545      1.79532783231121      0.53818521842662
  C   -4.86706954287995      2.52192929220163      1.29423950835972
  C   -4.45688259793951      2.05435581134609      2.54808832733083
  C   -3.51734922065134      2.77576925786724      3.29784436413683
  C   -3.02316295490299      3.97499341242531      2.75564568838504
  C   -3.42591579410314      4.47046282333523      1.50471833274444
  C   -4.35304051506846      3.71459384724843      0.77231250426546
  H   -4.68311611827845      4.02753450287632     -0.21679239891672
  C   -2.84209633805171      5.79791082356068      0.97690973005761
  C   -3.42167199743838      6.18600344522638     -0.39614146371116
  H   -4.51449832457244      6.32104061101106     -0.35804455437771
  H   -2.98157751788397      7.13954269574245     -0.72916257289888
  H   -3.19623647866582      5.43199673971423     -1.16719479043447
  C   -1.30742470931380      5.66837474859505      0.83292736253393
  H   -0.87355007908055      6.61891717561379      0.47939087065886
  H   -0.82510902364509      5.41793340261203      1.79086122019980
  H   -1.04117243230850      4.88488192590787      0.10437605321710
  C   -3.16895526280734      6.93447756687263      1.97418476190504
  H   -2.73688633071812      6.74642438621731      2.96940287479254
  H   -4.25812460977077      7.05043100210984      2.09750614797302
  H   -2.76216108207508      7.89289290975144      1.60987989663516
  H   -2.29706200786990      4.54833337216873      3.33444540650985
  C   -3.03688899159903      2.30644064519345      4.68718546962094
  C   -3.67740136984140      0.97011361602387      5.10600644493679
  H   -3.43702414486208      0.15805808368260      4.40156323553954
  H   -4.77403530585027      1.04363943315241      5.17964815246924
  H   -3.29975498244305      0.67191793909987      6.09715816642609
  C   -3.40730288080870      3.37242174953718      5.74514885967226
  H   -4.49812930445026      3.52508007686992      5.78578038822739
  H   -2.93990442073591      4.34607784341993      5.52956654098527
  H   -3.06947090496175      3.05368843416112      6.74570596043410
  C   -1.50172002025830      2.11806661109229      4.66574771872201
  H   -1.20652804210053      1.35652258165940      3.92536767111395
  H   -0.97436115428511      3.05224587932164      4.41647212487928
  H   -1.14235315221264      1.78721973821177      5.65473948666053
  H   -4.89404564468285      1.13304406250835      2.92523100404157
  H   -7.18461440044077      3.40869793799644      0.10744902213780
  H   -8.56528613490207      1.50883105528146     -1.28204936457638
  H   -7.12187143355634     -0.80379597903074     -1.02780388767599
  H   -3.82500450148070     -0.20893999870137      0.06998769884967
  C   -3.65887258510653     -2.39172978516752      1.48562182355156
  H   -6.91572835188317     -1.48191941700740      1.52102182743342
  H   -7.12688952769405     -3.62716821495539      2.69614047749019
  H   -5.08972759711240     -5.07147508693144      3.11946113421546
  H   -0.61884348188965     -3.60199830334364      1.76917697268170
  C   -0.09811539068174     -1.08953874359679      1.06541901924663
  C   0.57550465091050     -0.12072455345956      0.29985070251990
  N   -0.01751844275058      0.64048687724709     -0.64261761432060
  C   1.90805292798252      0.07568693797296      0.72216461383438
  C   2.06922652328281     -0.81924335211984      1.84531512952961
  C   0.88017151781572     -1.50652875359074      2.05163861498051
  H   0.71773673904617     -2.22722098004638      2.84934923429410
  H   2.97220972263522     -0.93212735794394      2.43945063213081
  H   -1.68376854079203      2.76807616349117     -3.14558523766205
  C   5.04336530983762      0.69549457547130      0.68935157298965
  H   3.58996892758686      3.58755369507313      0.21132513368029
  H   8.02648296591208      2.04998532050516      1.74941318057749
  H   8.60258588674655     -0.40743080057128      1.70407498614237
  H   6.98277132263036     -2.06743745134624      0.90381231674190
  H   3.63338083342395     -1.22584275524647     -0.36603246087526
  H   5.67026820586025     -3.86728588613870      1.53019756578277
  H   5.51343222885267     -6.15855091333207      0.05190891574571
  H   4.25166071683892     -5.47365497561407     -2.27261890079565
  H   5.07618267916297     -1.35799274331743     -2.77377892118818
  C   3.99664582715287      0.22360031694123     -4.76103544834461
  C   2.99689366067327      0.95964200522063     -5.67334330731756
  H   2.12075258963124      1.32066340058770     -5.11082302771946
  H   2.64200030686166      0.32566307038885     -6.50148968835579
  H   3.48688388814432      1.83785060354675     -6.12286252171989
  C   4.51207089539112      1.23475224038919     -3.71105158605037
  H   4.96722391737832      2.10210331838263     -4.21737278599119
  H   5.28411032234195      0.80042934982980     -3.05689917668351
  H   3.69352271276280      1.60643790677148     -3.07409970132810
  C   5.18330651529187     -0.26650974917238     -5.62546372709724
  H   5.95078946111171     -0.76748013722413     -5.01416082235790
  H   4.84606372326317     -0.98106786562012     -6.39421560240336
  H   5.66316488121426      0.58510789513867     -6.13666398068185
  H   1.53610772908381     -0.98250530456395     -5.19822134375433
  C   -0.53375149507057     -2.33598665537640     -5.31449029204264
  H   -0.72613158875705     -1.31920253257627     -4.93580242865669
  H   0.05170960376155     -2.25261245823447     -6.24389123044018
  H   -1.50712121772813     -2.77948865608730     -5.57746761019634
  C   0.38537444944182     -4.62240564855599     -4.87576970369078
  H   1.04535915824520     -4.57258177535599     -5.75713650233341
  H   -0.57784616366499     -5.05583042087439     -5.19334170663720
  H   0.84215798961212     -5.31594125635095     -4.15215740443552
