48
Coordinates from ORCA-job ./opt_b3lyp_cdz
  N   -7.16029840241227     -2.61163872325906     -0.11171922508940
  C   -5.98796410609418     -1.86745758952256     -0.03220551178741
  C   -4.77444155132049     -2.47009251621735      0.30498741625842
  C   -3.55649299784478     -1.75581760828075      0.32997628476068
  N   -2.41519593143487     -2.40484609140280      0.71597740504456
  H   -1.54361178694511     -1.91912090114977      0.49031420943203
  H   -2.43146833660305     -3.41678014665569      0.70911076742837
  C   -3.56120067862258     -0.35305929247303      0.00881825372752
  C   -2.34975982321760      0.48173498318787      0.01612321390267
  N   -1.14406852683188     -0.14864948813365      0.01225110002893
  C   -0.00003175623441      0.54131623164128      0.00024856478745
  N   1.14402260483133     -0.14861515416650     -0.01200024554122
  C   2.34969764559266      0.48180008930055     -0.01566832972706
  C   3.56115284429141     -0.35297790143250     -0.00861512673332
  C   4.80897220274182      0.21943750175422      0.33250340951567
  C   5.99500121022091     -0.49060302135566      0.36206230359956
  C   5.98790059110599     -1.86741041494349      0.03213058276716
  N   7.16021771519561     -2.61163335061274      0.11150587772059
  H   8.01685642261054     -2.07858726500985     -0.00210528055292
  H   7.17185227101609     -3.46587093646388     -0.43723796066113
  C   4.77441955533758     -2.46989987023567     -0.30547065125185
  C   3.55648206099408     -1.75560260505046     -0.33035483387550
  N   2.41524821287654     -2.40444507164880     -0.71686300373509
  H   1.54362084726191     -1.91877239170994     -0.49124440044483
  H   2.43148693931918     -3.41638370537795     -0.71040434877416
  H   4.75593032009361     -3.53447633257863     -0.56035123316978
  H   6.92706545040307     -0.00192222470462      0.65521349934945
  H   4.84098297171724      1.27126062609547      0.61928916150249
  C   2.40606972184658      1.87861473679683     -0.02343685850770
  C   1.22766399795981      2.64375212510327     -0.01113574377008
  C   1.20816017452664      4.05426478723650     -0.01550774753878
  C   -0.00008490950234      4.74102195295254      0.00100312866080
  C   -1.20831198669538      4.05422717132762      0.01726623640467
  C   -1.22777956803612      2.64371593701923      0.01237815211614
  C   -2.40616541335713      1.87854359374075      0.02441238685018
  H   -3.34608774306124      2.42207535721980      0.07281381066862
  N   -0.00004937610205      1.95877548309767      0.00049552193595
  H   -2.16474682420283      4.57586314227084      0.03008621553000
  H   -0.00009920214769      5.83404236009893      0.00120368056176
  H   2.16458154943052      4.57593005437759     -0.02813351300985
  H   3.34597695433128      2.42218795971785     -0.07162748750306
  C   -4.80905985875975      0.21950103878714     -0.33190554203189
  C   -5.99509791943079     -0.49051927714235     -0.36159047448726
  H   -6.92719901021345     -0.00171235714563     -0.65441406207859
  H   -4.84110301538666      1.27144776256139     -0.61824089151834
  H   -4.75592309907722     -3.53477483148648      0.55942347053226
  H   -7.17186614570492     -3.46609692899030      0.43668240590905
  H   -8.01691696746947     -2.07863096566099      0.00222259609613
