40
Coordinates from ORCA-job ./opt_b3lyp_cdz
  C   -5.78048405851129     -2.50318395676820     -0.00021958056076
  C   -5.95353190897278     -1.11480448511740      0.00387387925050
  C   -4.84399007346975     -0.26878253165735      0.00403409274226
  C   -3.53794206204839     -0.79412857605011      0.00011459948065
  C   -3.37733252584386     -2.19269053948133     -0.00376716476544
  C   -4.48784567977335     -3.03729488188836     -0.00401119169278
  H   -4.34333055229359     -4.12048059813852     -0.00714838448281
  H   -2.36295442661682     -2.59098383069354     -0.00654911175502
  C   -2.32916943716727      0.07550139166099      0.00003872180038
  N   -1.14577598548432     -0.57046360591072      0.00017647357872
  C   0.00000873995740      0.11291882001277      0.00007613669979
  N   1.14579883630436     -0.57045442880356      0.00007617453124
  C   2.32918749170174      0.07551950203433      0.00019694731909
  C   3.53796665919014     -0.79410172531212      0.00027714242534
  C   3.37736419973556     -2.19266856457281      0.00224990051822
  C   4.48788291099266     -3.03726564518365      0.00249137508115
  C   5.78052037636395     -2.50314221787663      0.00068929037939
  C   5.95356167511069     -1.11475743602410     -0.00138466138456
  C   4.84401418705952     -0.26874297692108     -0.00158631243042
  H   5.00747818025533      0.80992271863059     -0.00339767604906
  H   6.95922011629333     -0.68760460820093     -0.00289903007125
  H   6.65051137161407     -3.16446798245685      0.00085697389054
  H   4.34337280808672     -4.12045540821265      0.00408482689767
  H   2.36298689825667     -2.59097127619806      0.00357739952836
  C   2.40474636570005      1.46340034061055      0.00036264843736
  C   1.22189488247274      2.23177364740842      0.00015355529114
  C   1.20655919660690      3.64142904799928      0.00006027456591
  C   -0.00000772185472      4.33072362418757     -0.00026823070291
  C   -1.20656932365996      3.64141969121704     -0.00046119733348
  C   -1.22189406681582      2.23176421303577     -0.00028542210127
  C   -2.40473950483241      1.46338155471889     -0.00038512252169
  H   -3.34868050819292      2.00274239675079     -0.00107714247431
  N   0.00000306801797      1.54438197445591      0.00000109689127
  H   -2.16429259045570      4.16079031119971     -0.00069752267468
  H   -0.00001192794715      5.42349856892774     -0.00037427525488
  H   2.16427842829547      4.16080715072263      0.00019292987872
  H   3.34868273295914      2.00276946534063      0.00074659487695
  H   -5.00745757988893      0.80987825700232      0.00762807127731
  H   -6.95919084622410     -0.68766194936323      0.00705449659115
  H   -6.65047060876048     -3.16451558929647     -0.00036125065078
