44
Coordinates from ORCA-job ./opt_b3lyp_cdz
  N   -2.43391135675643     -2.58423392604133     -0.86745445056910
  C   -3.56132882317051     -1.95562353868200     -0.40891731357746
  C   -3.56434118224357     -0.57892109840776     -0.00400082787044
  C   -4.79033001677550     -0.01512418997101      0.41743780517745
  C   -5.97959986179942     -0.73054492533846      0.44187932971714
  C   -5.96962860082947     -2.07218821906523      0.02751601985271
  C   -4.78806747101423     -2.66677789636461     -0.38532073865235
  H   -4.78371933320496     -3.71366213744608     -0.70275408359175
  H   -6.89212980318407     -2.65860407410062      0.03795418448273
  H   -6.90088120055388     -0.25895266778545      0.78809234066143
  H   -4.79638167048172      1.01700778972214      0.77081799577947
  C   -2.34538355639752      0.25853235902830     -0.01193896815256
  N   -1.14438433912384     -0.37601946017925     -0.01012144479501
  C   0.00003972911269      0.31352552570270     -0.00004611235526
  N   1.14448211556874     -0.37598766280673      0.00990246722032
  C   2.34546219986572      0.25859758402967      0.01182656317033
  C   3.56441357599731     -0.57885368740796      0.00376535820408
  C   3.56134418771864     -1.95560638713020      0.40848227198487
  N   2.43393288573963     -2.58415302626907      0.86712243703845
  H   2.46285663196000     -3.59421663732901      0.92839411059807
  H   1.55160642559872     -2.13504455997984      0.61584740546203
  C   4.78802428534191     -2.66685631417551      0.38463579884303
  C   5.96958837916820     -2.07229050616617     -0.02822724831923
  C   5.97961438926618     -0.73058190696619     -0.44238444812305
  C   4.79039819466692     -0.01507936534809     -0.41771472120024
  H   4.79649009554282      1.01708560255604     -0.77098246373567
  H   6.90089052177501     -0.25900779537309     -0.78863593306681
  H   6.89204579348853     -2.65877167360619     -0.03884983391297
  H   4.78363015541033     -3.71378358776615      0.70192676509530
  C   2.40645334068049      1.65137656637941      0.02118780987026
  C   1.22585029580470      2.41811387554391      0.01105393349090
  C   1.20758994883714      3.82747862715943      0.01645970218692
  C   -0.00002033202147      4.51533090527477      0.00028633057495
  C   -1.20761096278679      3.82744392799852     -0.01599654511167
  C   -1.22582922977701      2.41807946211591     -0.01081099200140
  C   -2.40641033912930      1.65130706370833     -0.02107750740817
  H   -3.34866461439177      2.19086558316245     -0.07013496268870
  N   0.00002030957752      1.73225146256380      0.00007057268679
  H   -2.16437460893817      4.34832084909833     -0.02878785613478
  H   -0.00003718141756      5.60812477389223      0.00037168462827
  H   2.16433824251005      4.34838174409071      0.02933042327310
  H   3.34868628295519      2.19095423494908      0.07034092465925
  H   -2.46295176429752     -3.59428746651892     -0.92883012436044
  H   -1.55159345539938     -2.13531346381357     -0.61582318042419
