39
Coordinates from ORCA-job ./opt_b3lyp_cdz
  C   -5.91096175513639     -2.33986862285861     -0.00018674060755
  C   -4.64132363607028     -2.92589658994643     -0.00189252576893
  C   -3.49722751951871     -2.12711558524458     -0.00174912528478
  C   -3.60125132338198     -0.72299720368556      0.00002986525186
  C   -4.88547720405614     -0.14503408965644      0.00180430614935
  C   -6.02780275644925     -0.94530004507846      0.00169635547743
  H   -7.01532959346478     -0.47791926409661      0.00313851719700
  H   -5.00578440648710      0.93936891141977      0.00346588183170
  C   -2.36051290456372      0.09685018585625      0.00001220967060
  N   -1.19646717519371     -0.60367653881613      0.00009293341122
  C   -0.03735394637778      0.03253583200534      0.00007999046926
  N   1.10580547319951     -0.67430324228963      0.00011788029172
  C   2.26560552217664     -0.00909723221416      0.00022510334221
  C   3.50676550294214     -0.82389910720854      0.00031083137035
  C   3.43050801064132     -2.22833991851082      0.00031503738676
  C   4.59644933280080     -2.99436098771393      0.00039690635301
  C   5.84889929234572     -2.36905937292485      0.00047618807508
  C   5.93121272235509     -0.97165074761501      0.00047342887046
  C   4.76794556677566     -0.20150841034761      0.00039123711058
  H   4.81274750822055      0.88758836659199      0.00038780543850
  H   6.90772353757279     -0.48125470484543      0.00053540567194
  H   6.76128600471819     -2.97097739546662      0.00054104068575
  H   4.52970518676652     -4.08502023538248      0.00040116491287
  H   2.44532395043296     -2.69504892848243      0.00025598997494
  N   2.41290710528089      1.32417320552604      0.00026160075211
  C   1.29514718864347      2.06560226562137      0.00013222403528
  C   1.35155298701409      3.47253649990665      0.00005921326927
  C   0.18260915301151      4.22352468162996     -0.00012189339256
  C   -1.06422976742342      3.60414366158882     -0.00021719704126
  C   -1.15570963144686      2.20189605884639     -0.00011982882015
  C   -2.37423749323441      1.48235439786924     -0.00019198981371
  H   -3.29450639270572      2.06169408618434     -0.00053625474087
  N   0.02702882895591      1.45521677822260      0.00004982241104
  H   -1.98993749730648      4.17877055861662     -0.00035227409202
  H   0.24300231257841      5.31462070758542     -0.00018875691123
  H   2.34314710324518      3.92138506258208      0.00012820324808
  H   -2.50067187004896     -2.56786609712465     -0.00299765749747
  H   -4.54063611258982     -4.01394655661570     -0.00333000258376
  H   -6.80700408625299     -2.96532905480683     -0.00027514586914
