38
Coordinates from ORCA-job ./opt_b3lyp_cdz
  C   -5.96624028304839      2.18580072835365     -0.00009253890948
  C   -5.99478517040641      0.78586675407851     -0.00014437143891
  C   -4.80318936225532      0.06145702587629     -0.00014317433203
  C   -3.56667695609601      0.73271270728822     -0.00008919952420
  C   -2.29680044592149     -0.03293825460036     -0.00008798600784
  N   -1.15709601068473      0.68724742498467     -0.00002642951815
  C   0.00000480523903      0.02771632669917     -0.00001312089795
  N   1.15711111571543      0.68723781410428      0.00006057944100
  C   2.29680959012347     -0.03295730223752      0.00005921626066
  C   3.56669244929718      0.73268317043674      0.00012960597823
  C   3.54447024083519      2.13926194104863      0.00018979590993
  C   4.73943336675728      2.85935242958700      0.00025646212802
  C   5.96626774337041      2.18575148604407      0.00026360665914
  C   5.99480109627226      0.78581727227136      0.00020368988926
  C   4.80319933870603      0.06141734422481      0.00013667971621
  H   4.80650415658377     -1.02861863362761      0.00008925207641
  H   6.95164968521011      0.25828303341999      0.00020952109671
  H   6.90130057723095      2.75173456101315      0.00031592473777
  H   4.71506039643616      3.95167245976638      0.00030299651396
  H   2.57877577839601      2.64483465148384      0.00018344114531
  N   2.38473287048842     -1.36537306538312     -0.00000980976605
  C   1.23220356115258     -2.06138291215846     -0.00007427342833
  N   -0.00000106029215     -1.38962952135158     -0.00007732859356
  C   -1.23221125917742     -2.06137270015274     -0.00014240217405
  N   -2.38473476678608     -1.36535327063781     -0.00014154005313
  C   -1.21326090216083     -3.46497635915057     -0.00020822177791
  C   -0.00001253969009     -4.14759842128079     -0.00020587686658
  C   1.21324148617951     -3.46498643674142     -0.00013973386359
  H   2.17648419670859     -3.97192317769254     -0.00013550511163
  H   -0.00001707776974     -5.24032549679704     -0.00025716881847
  H   -2.17650778247800     -3.97190517841437     -0.00025952345548
  C   -3.54444317120214      2.13929129915784     -0.00003632930782
  C   -4.73940038183717      2.85939159059935     -0.00003883723336
  H   -4.71501846533329      3.95171142544048      0.00000140161576
  H   -2.57874455183325      2.64485609821990      0.00000656658007
  H   -4.80650317702789     -1.02857892954260     -0.00018443276305
  H   -6.95163812066439      0.25834040098569     -0.00018594252647
  H   -6.90126846432130      2.75179150138597     -0.00009395016230
