42
Coordinates from ORCA-job ./opt_b3lyp_cdz
  N   5.00034063819312     -1.34262845432326      0.33392916708479
  C   4.98142372533424      0.00691239061383      0.16276974604270
  C   6.21552607005073      0.71334917554545      0.18048542404277
  C   6.27454084497507      2.08666764630814      0.03550905584318
  C   5.09472426741188      2.83301027723699     -0.13975667196786
  C   3.88081408064440      2.16708295046178     -0.15358844965244
  C   3.76620349144649      0.76249559485796     -0.00064336109869
  C   2.43315451187427      0.13690106257348     -0.01647407256459
  N   2.38049512599272     -1.22540728370766     -0.08847112019437
  C   1.22036148221595     -1.86286564040240     -0.11909889318503
  N   1.20239690176916     -3.20917505197154     -0.18045602997918
  C   0.00003636716836     -3.78113355946867     -0.20586504786525
  N   -1.20233653276925     -3.20920785254146     -0.18040280813052
  C   -1.22033698244652     -1.86289716028566     -0.11905268529660
  N   -2.38048397317880     -1.22546840203052     -0.08839245697155
  C   -2.43316154104643      0.13684004197336     -0.01640966325589
  C   -3.76622658956139      0.76240784328347     -0.00055114254220
  C   -3.88088797788699      2.16695564030150     -0.15379249532293
  C   -5.09481902597512      2.83285113614201     -0.13995944426741
  C   -6.27458916386612      2.08651240570247      0.03561522554893
  C   -6.21551479505271      0.71322337660032      0.18088233074673
  C   -4.98139642403014      0.00682445080574      0.16316873464456
  N   -5.00023322051635     -1.34268931263036      0.33466855319391
  H   -4.13095546449247     -1.84785023204073      0.15823448959611
  H   -5.89134643929891     -1.81942626665336      0.31448289513016
  H   -7.13521982537185      0.13582654774113      0.31160744067215
  H   -7.24574819402451      2.58796053330991      0.05004414447950
  H   -5.13266766095933      3.91535634452832     -0.27138291866058
  H   -2.97621107489064      2.75339415590355     -0.31498692273468
  C   -1.24842771228603      0.88025779069242      0.04026811403429
  C   -0.00000601120509      0.23791245522118     -0.00295479488407
  C   1.24839596785524      0.88028794404006      0.04023121577149
  H   1.24414414144019      1.96252055586724      0.13528523383913
  N   0.00000544426464     -1.15807998793872     -0.08909096787068
  H   -1.24421223268508      1.96248891117016      0.13535029174221
  H   0.00005041594344     -4.87698905708317     -0.25395939947130
  H   2.97610431428293      2.75354234564034     -0.31451670997518
  H   5.13252353412098      3.91554668733188     -0.27093549989005
  H   7.24568574328835      2.58814321815312      0.04993441624857
  H   7.13526374193100      0.13595091124612      0.31097411166269
  H   4.13101207171197     -1.84779441433446      0.15776294885611
  H   5.89146743647242     -1.81933461707798      0.31378952518291
