42
Coordinates from ORCA-job ./opt_b3lyp_cdz
  N   7.16917045938872      2.65150728700941     -0.09529296363668
  C   5.98412308610775      1.93470924959567     -0.03380578877002
  C   5.99406384316792      0.52206087702794     -0.03375687335359
  C   4.80457212191876     -0.19308225418043     -0.02836203149764
  C   3.55987023090643      0.46729628487213     -0.02269202179292
  C   2.29947067296815     -0.29205635896044     -0.01420791815430
  N   1.15652002467570      0.42685914105747     -0.00722450301017
  C   -0.00001875846257     -0.23249560182918      0.00047891507822
  N   -1.15655855181055      0.42685799753009      0.00810796550100
  C   -2.29950823017298     -0.29205847747762      0.01516609203851
  C   -3.55990864168480      0.46729353417623      0.02357724248029
  C   -3.55183779578516      1.87632837373449      0.02389909430462
  C   -4.73762447279715      2.59826442674513      0.02926230683005
  C   -5.98416246540238      1.93470588765608      0.03454478693451
  N   -7.16920998713443      2.65150974864803      0.09595977293710
  H   -7.12636585049323      3.61215076201700     -0.22809378451960
  H   -8.00050821582889      2.16744254216947     -0.22695398217977
  C   -5.99410211627694      0.52205748118597      0.03465677688471
  C   -4.80460984343460     -0.19308537025550      0.02933290299069
  H   -4.81502045219705     -1.28333214451569      0.02686668548218
  H   -6.95090771803663     -0.00792675235038      0.04097209004382
  H   -4.71150732775463      3.69172838074235      0.03112644982825
  H   -2.58930370399021      2.38840471779978      0.01706454011094
  N   -2.38485884936296     -1.62913125890020      0.01496634989843
  C   -1.23402667617286     -2.32233546104879      0.00794922344246
  N   -0.00001774268204     -1.65134736248639      0.00055672894403
  C   1.23399216902258     -2.32233437993111     -0.00676187267200
  N   2.38482317276518     -1.62912916064225     -0.01385855321914
  C   1.21359340902517     -3.72731416648199     -0.00650213004869
  C   -0.00001543240313     -4.40892057568978      0.00071063702979
  C   -1.21362533674156     -3.72731520405555      0.00784707345769
  H   -2.17665774899750     -4.23465287936475      0.01375442432436
  H   -0.00001463448643     -5.50190373205633      0.00077214072491
  H   2.17662662400338     -4.23465095619561     -0.01235272614858
  C   3.55179822185280      1.87633100172051     -0.02317251454092
  C   4.73758446119268      2.59826731424467     -0.02860858421163
  H   4.71146656594063      3.69173102829183     -0.03059840046026
  H   2.58926362646161      2.38840740598822     -0.01640283350064
  H   4.81498357789612     -1.28332862684994     -0.02577331676380
  H   6.95086942990205     -0.00792424395868     -0.04000364048321
  H   8.00046660269226      2.16747682961137      0.22768121818600
  H   7.12632306459774      3.61218452894501      0.22865275270183
