42
Coordinates from ORCA-job ./opt_b3lyp_cdz
  N   -7.66970938439692      2.08859088573124      0.08565639670447
  C   -6.39340666472574      1.55172807840672      0.02455005738490
  C   -6.19020646587977      0.15569188686405      0.05623117608332
  C   -4.90787490924917     -0.37523721051110      0.05106071677349
  C   -3.76715592522655      0.45423142994132      0.01604632715600
  C   -2.42193695597921     -0.15341591764627      0.01076012028065
  N   -2.38971180844593     -1.50956266291520      0.01247781074174
  C   -1.22786492221350     -2.14538497444236      0.00707109264123
  N   -1.20300244713494     -3.49243244360625      0.00783866565648
  C   0.00002473436984     -4.06227813390252     -0.00073899675541
  N   1.20305505121909     -3.49243720868771     -0.00919279479453
  C   1.22792354539122     -2.14538897399806     -0.00811601473873
  N   0.00002963550205     -1.43698426691328     -0.00043687701768
  C   0.00002994599045     -0.04166013319565     -0.00027872022863
  C   -1.24922841411852      0.60333218798974      0.00577742163751
  H   -1.25391327232683      1.69090696688765      0.00932432535674
  C   1.24929089480240      0.60332882420080     -0.00619142835075
  C   2.42199098389702     -0.15342292732990     -0.01133894499278
  C   3.76717864854874      0.45426995455716     -0.01649583400342
  C   3.97804774764356      1.84773676943992      0.01573349928973
  C   5.25718907582711      2.38888864964812      0.01228986941423
  C   6.39343469550016      1.55193413487447     -0.02484103241437
  N   7.66983367468455      2.08856204246514     -0.08597520201938
  H   7.77509997929314      3.03456366600521      0.26552037899662
  H   8.42463802882366      1.47703208019884      0.20723242040621
  C   6.19023594513732      0.15588197199455     -0.05692687826511
  C   4.90795037837672     -0.37512832509520     -0.05183989229419
  H   4.75469004940125     -1.45406257379676     -0.07271486634113
  H   7.05545503829652     -0.51251427425238     -0.08723701306184
  H   5.38861650410808      3.47419534592162      0.03685762582521
  H   3.13115447741623      2.53511617954279      0.04981931577360
  N   2.38977108679310     -1.50956935929099     -0.01337222023448
  H   1.25398295325666      1.69090522589807     -0.00951299784534
  H   0.00002188777148     -5.15956701771129     -0.00087371952167
  C   -3.97811333971598      1.84772006635887     -0.01574109934011
  C   -5.25724031492115      2.38878003802297     -0.01220195198632
  H   -5.38877602745045      3.47409176875073     -0.03643640834105
  H   -3.13123486300559      2.53513341010002     -0.04954526810838
  H   -4.75455191894746     -1.45416958175556      0.07161779110512
  H   -7.05540376824367     -0.51273961608131      0.08627419761503
  H   -8.42456041946494      1.47758388972598     -0.20854389173652
  H   -7.77406848921930      3.03477953385025     -0.26559108787981
