20
Coordinates from ORCA-job ./opt_b3lyp_cdz
  F   1.88031693369589      3.52948638445817     -0.03845367819845
  C   1.27406229029973      2.33707491173549     -0.00113010315639
  C   2.06089408695988      1.20404892135573     -0.06913876352577
  C   1.40108195410070     -0.04021172759298     -0.02884035909788
  C   2.07423294812239     -1.27968855277528     -0.08932235600220
  C   1.36467892287291     -2.46936320644222     -0.04496733530508
  C   -0.02391046821747     -2.45854376719899      0.06004990798925
  C   -0.72031705477766     -1.24116019540764      0.12213321322779
  C   -2.13092229577557     -1.14576748564883      0.22955641709263
  C   -2.71281884210915      0.09922111403718      0.28348609420284
  N   -2.03369191487094      1.25814527393315      0.24122943012519
  C   -0.70722897654649      1.21564277564433      0.14036222963226
  N   -0.03503884331529      2.37759610375809      0.09830066827735
  N   -0.00082836671382     -0.03443328779423      0.07717999833125
  H   3.14423399106172      1.25177003850576     -0.15075179175607
  H   3.16045625211318     -1.26142205622643     -0.17135674296227
  H   1.89843858542687     -3.42156880328330     -0.09273547687021
  H   -0.60462816436158     -3.37944932280515      0.09680810267690
  H   -2.71666909513352     -2.06340815378912      0.26663081762956
  H   -3.80109194283177      0.19587103553628      0.36669972768930
