21
Coordinates from ORCA-job ./opt_b3lyp_cdz
  S   -1.06722236957016      3.80972005195620     -0.44223943023876
  C   -0.06737903576497      2.35805538349582     -0.13614488710403
  C   -0.66663205964021      1.11096420416648     -0.04482018257080
  N   -0.01592036536416     -0.04219375224942      0.11189615716819
  C   1.32057820830877     -0.02391916267366      0.20276626304220
  N   1.95366442992391     -1.18881815911137      0.37369264587298
  C   3.28895199416655     -1.19038000586525      0.46757901865559
  C   4.07379702941239     -0.05910971562301      0.39916371243406
  C   3.44882693064306      1.19635516097959      0.21748270433544
  C   4.16148345166820      2.40879953907956      0.13088195463411
  C   3.48559725182514      3.60460149563888     -0.05101294817810
  C   2.09695578182095      3.62199006736551     -0.14292610749125
  C   1.35868546618995      2.42941182837983     -0.06005702720444
  N   2.04747388102560      1.21413583188705      0.12044572045700
  H   -0.98281558759454      4.37172161381689      0.79935262547762
  H   -1.75834056513432      1.04202030610665     -0.10691380327972
  H   3.75140509575817     -2.17418619878518      0.60747228589482
  H   5.15938171144107     -0.09792174203215      0.47940589524858
  H   5.24731577866751      2.36514456303586      0.20940830687097
  H   4.04347347754681      4.54135698433203     -0.12291590634999
  H   1.54316949467027      4.54457170609967     -0.29916699767444
