20
Coordinates from ORCA-job ./opt_b3lyp_cdz
  Cl  2.30202328653845      3.92201355638788      0.03893407031864
  C   1.41587202573511      2.41518485527065      0.08708155492248
  C   2.11107794232637      1.21630740465664      0.00769146618598
  C   1.40375689199408     -0.00110153355366      0.04582044075965
  C   2.03052979170645     -1.26530279415112     -0.02889027602257
  C   1.24569343867769     -2.40029637685894      0.01713390710822
  N   -0.08700259331208     -2.39901828728756      0.12905666072158
  C   -0.72435156659808     -1.22409742254271      0.20317425644991
  N   -2.05832661795034     -1.23378266347645      0.31511638297771
  C   -2.70460776701066     -0.06529422173765      0.38979888108287
  C   -2.09396335962243      1.17265607033368      0.36013787258204
  C   -0.68716624804995      1.23485163436106      0.24307667579693
  C   0.03294899219317      2.44468218492797      0.20381415269803
  N   0.00478939101263      0.01577018769230      0.16361063545035
  H   3.19457843302346      1.18841748617531     -0.08388573569930
  H   3.11472557776722     -1.31171398347712     -0.12069728510040
  H   1.71279912960423     -3.39033962665781     -0.03947040363499
  H   -3.79482345112908     -0.13480434254289      0.48021041786752
  H   -2.65938797232845      2.10125828213456      0.42385463832414
  H   -0.51586532457776      3.38170959034591      0.26638168721117
