20
Coordinates from ORCA-job ./opt_b3lyp_cdz
  Br  2.38263601428458      4.05900225672912      0.03780048826172
  C   1.41646156515272      2.41601105385758      0.08883065178243
  C   2.11213468138590      1.21758425936945      0.00896647389007
  C   1.40410012294985     -0.00039361300222      0.04628934597918
  C   2.03103486016985     -1.26446332292734     -0.02886944438860
  C   1.24617082246974     -2.39950010488868      0.01642676732924
  N   -0.08654886890690     -2.39821574029215      0.12798824205708
  C   -0.72389307672005     -1.22324197745666      0.20245352155613
  N   -2.05796388562761     -1.23296959939973      0.31400306770255
  C   -2.70425430332128     -0.06451569761963      0.38904992759761
  C   -2.09351994046847      1.17343575969438      0.36014306270131
  C   -0.68669993386010      1.23542623556840      0.24351857328788
  C   0.03363897165022      2.44610395177209      0.20509343977452
  N   0.00525148328461      0.01654646709111      0.16367148198816
  H   3.19546223792501      1.18450370461235     -0.08233054342310
  H   3.11525954740059     -1.31074122287646     -0.12039262154992
  H   1.71328909908107     -3.38952688936398     -0.04048933232872
  H   -3.79450554700109     -0.13401309329182      0.47912247345178
  H   -2.65882298089108      2.10209210310112      0.42414162275913
  H   -0.51961086895760      3.38041546932308      0.26831280157150
