20
Coordinates from ORCA-job ./opt_b3lyp_cdz
  Br  -0.84239550141425      4.08025128338129     -0.60541144993514
  C   0.05554583194304      2.41851459660935     -0.30908546449492
  C   1.43378539361547      2.41755123033124     -0.13944948840512
  C   2.10364534838773      1.22294218194032      0.07628381155912
  C   1.40105086258191      0.00438135000769      0.12573094387610
  C   2.02599955057000     -1.24510031679969      0.34181529044505
  C   1.24757486145219     -2.38261485775367      0.37282661079768
  N   -0.08044427044998     -2.39198684186951      0.21070784712482
  C   -0.71565314310803     -1.23346076195956      0.00360553157921
  N   -2.04557004599213     -1.26692730637043     -0.15588880833346
  C   -2.69198134039002     -0.11812943211128     -0.36340013044680
  C   -2.09200782703628      1.12530950059947     -0.42852506196692
  C   -0.69313554828602      1.21557110179507     -0.26680890132422
  N   0.00762716260523      0.01286166776876     -0.04650660686940
  H   1.98338782127838      3.35925431839215     -0.17696941742798
  H   3.18404396050304      1.19685444589134      0.21204147492243
  H   3.10626324613558     -1.27434175471646      0.47784578790903
  H   1.71012000090701     -3.36230043001501      0.53870224326543
  H   -3.77781210373048     -0.20313184085387     -0.48712264905811
  H   -2.66459425957239      2.03230186573279     -0.59993156321678
