25
Coordinates from ORCA-job ./opt_b3lyp_cdz
  C   1.17248965235730      4.81464776252549      0.17530180076329
  N   1.69322696485992      3.56990198486208     -0.35737680690553
  C   1.24545929251519      2.32987973999613     -0.01997002522773
  C   1.81814089311291      1.18375598727670     -0.60167767893099
  C   1.33853713612348     -0.07470837258279     -0.23543850620285
  C   1.84750333900199     -1.29085591353806     -0.76392719323321
  C   1.33048310370825     -2.50655677638437     -0.36124235274806
  C   0.29477866304608     -2.56397399186750      0.57554180232620
  C   -0.23037726687475     -1.38404739861650      1.11659464796586
  C   -1.27885396890362     -1.35034580225026      2.07009209485594
  C   -1.71701165721482     -0.13111664559565      2.53463062771784
  N   -1.22265384000906      1.05670039780458      2.15079902071557
  C   -0.23216333927119      1.07402335147569      1.25245871077159
  N   0.25078689170052      2.26086476475629      0.87827448793422
  N   0.29479508581954     -0.14333238237324      0.70783766498307
  H   0.38561050481101      4.56779372134894      0.89821052951538
  H   1.96416874730915      5.39105751752670      0.68523231266384
  H   0.74246313776863      5.44317664695735     -0.62449147482256
  H   2.44082704200775      3.61432484139675     -1.03749423789708
  H   2.62594473426658      1.24595651265755     -1.33088379118734
  H   2.65484406483532     -1.22410711338162     -1.49302960321153
  H   1.73483568762368     -3.43219033405790     -0.77884139494652
  H   -0.12810715439506     -3.51136644481223      0.90763658102506
  H   -1.70989269823934     -2.29138005623647      2.40988203660044
  H   -2.52678501595979     -0.08500199688773      3.27237074747545
