25
Coordinates from ORCA-job ./opt_b3lyp_cdz
  C   -2.03589249705724      3.37827915938810     -0.15928217513176
  N   -0.69189189468015      3.67039339209194     -0.67786120380875
  C   0.19532300362800      2.55873378158431     -0.73309814312909
  C   1.14290376742518      2.28899037376120      0.24694707502303
  C   2.00839164796657      1.20359874977055      0.13368709828807
  C   1.91050165255991      0.32567121308181     -0.95492980376312
  C   2.71209027190825     -0.83562979182000     -1.10922747260282
  C   2.52215543093175     -1.63192255118099     -2.21389953457978
  N   1.63283877211899     -1.37991407713359     -3.18835950883126
  C   0.86914454633293     -0.28967361233935     -3.09541847077437
  N   0.00897214224418     -0.03197623615070     -4.09417299841885
  C   -0.74919539615695      1.06408791813816     -4.01975108569974
  C   -0.74537005645638      1.95561988281848     -2.96297720952392
  C   0.12708439202288      1.71422343510452     -1.87998818860333
  N   0.96408316269565      0.59244845911726     -1.95836651408866
  H   -2.03634094423939      2.95999392280093      0.86803786777490
  H   -2.63267641075799      4.30403698813469     -0.16412002820219
  H   -2.53748635707766      2.65234511908608     -0.81797085711772
  H   -0.26976701908487      4.41697987675384     -0.12777054714337
  H   1.20625152677948      2.94425198405264      1.12071610993866
  H   2.75629721407847      0.99031603577684      0.89651691137851
  H   3.44818356503334     -1.06943822650304     -0.34093812454328
  H   3.11822904170533     -2.54225789693055     -2.34567542871737
  H   -1.41182009474503      1.23668099227370     -4.87632279312430
  H   -1.35763946717497      2.85298110832345     -2.94543497459999
