24
Coordinates from ORCA-job ./opt_b3lyp_cdz
  C   2.17846290847681      4.57433281788134      0.53754358282257
  C   1.51017347974285      3.80050097985089     -0.33010399265902
  C   1.39414324718833      2.33302449906874     -0.28802195512993
  C   1.99329998891701      1.54303314431561      0.70389060335653
  C   1.85798466924600      0.14867606262510      0.70725098534893
  C   2.44290926646598     -0.69586865759826      1.68602214547416
  C   2.24748339012550     -2.05548689550715      1.59645930056942
  N   1.53224844450166     -2.66295627771341      0.63680356488993
  C   0.96247091569599     -1.90946119895949     -0.30678878823931
  N   0.24823590333612     -2.52251350708399     -1.26453112692743
  C   -0.32521618913170     -1.77703629303618     -2.21258211033877
  C   -0.24118964836673     -0.39924220374938     -2.28875245925036
  C   0.49920765602484      0.29053980543787     -1.30371210534635
  C   0.65283644300565      1.69024680630628     -1.28108399147884
  N   1.10722019322970     -0.47885021851798     -0.30165956002370
  H   2.20145378867234      5.65918771446333      0.41448443734750
  H   2.72209765207123      4.16632696503100      1.39320235870743
  H   0.98740756418659      4.27852555218670     -1.16529621584222
  H   2.58398867869447      1.98302297236743      1.50561105141535
  H   3.03209224330637     -0.24524606957223      2.48375554488812
  H   2.69183746664718     -2.72301093034985      2.34380380886036
  H   -0.89510822920087     -2.33185074438762     -2.96737336504507
  H   -0.72575647401114      0.16977356982607     -3.08097406685216
  H   0.16757664117588      2.25970210711520     -2.07426764654721
