22
Coordinates from ORCA-job ./opt_b3lyp_cdz
  C   1.09274347819078      3.23306653253163      9.90472441213376
  C   -0.27313521161244      3.18407313449468     10.14020016226249
  C   -1.18682084437471      3.00659091493891      9.07562511209044
  C   -2.58336707545125      2.95346705458184      9.29128808231757
  C   -3.46073666264206      2.77864167229588      8.23151300061257
  C   -2.97500958751108      2.65295602178116      6.93854016393093
  C   -1.58600364817706      2.70022488644899      6.67761571685296
  C   -1.06747514266352      2.57439047712035      5.36806678179342
  C   0.29900894706658      2.62384428972022      5.13613088601968
  C   1.17919199354135      2.79851891727821      6.19360593293796
  C   0.70388360012497      2.92869620326458      7.51904871385719
  C   1.58187431868776      3.10763442299976      8.61301317582586
  N   -0.68964439862274      2.87849660048838      7.75743844525357
  H   1.78527356567812      3.37082596179080     10.73901806946304
  H   -0.68667415494082      3.27949775523699     11.14351081929660
  H   -2.93510960021901      3.05504092936375     10.31728916334288
  H   -4.53738891686039      2.73976944141200      8.41568279317968
  H   -3.63952419685943      2.51470208516960      6.08645785776912
  H   -1.78284480196687      2.43825471592570      4.55785527760583
  H   0.68310399084398      2.52497680628188      4.11764730936225
  H   2.25717472900664      2.84127733354871      6.04243796084521
  H   2.64910961876120      3.14221384332597      8.39729016324698
