22
Coordinates from ORCA-job ./opt_b3lyp_cdz
  C   -1.43627522092841      4.58293576755760     -0.48781970925349
  C   -0.78316343792733      3.56761256255260     -0.33177180809878
  C   -0.02752783997946      2.37676410389356     -0.14895893294910
  C   -0.64130400473641      1.12683078852686     -0.04914102554791
  N   -0.00411461532603     -0.02558286737160      0.12185213791248
  C   1.33639515197356     -0.02362712699902      0.20951805891426
  N   1.95549924623847     -1.19250286742145      0.38128624847014
  C   3.29346419161990     -1.20828885581220      0.47058538955552
  C   4.08889016440146     -0.08661117432979      0.39666389460580
  C   3.47641358772259      1.17690523780877      0.21481695952213
  C   4.19745900550159      2.38221656075146      0.12677065546729
  C   3.53068968428838      3.58638297555829     -0.05194380531078
  C   2.14400657447884      3.61306290198782     -0.14561675149847
  C   1.40128128481640      2.42363867948862     -0.06074617122196
  N   2.07500487609072      1.20597432900521      0.11991182195084
  H   -2.02149757791369      5.47094884251774     -0.62484918364099
  H   -1.73317373120978      1.06803884780606     -0.11414559956357
  H   3.74488871194012     -2.19687556289261      0.61109890821593
  H   5.17431092613277     -0.13657874786219      0.47321810831442
  H   5.28304797486883      2.33055208372834      0.20355478590576
  H   4.09665439589155      4.51846263498573     -0.11950392758070
  H   1.59201065205605      4.54021088652010     -0.28578005416874
