19
Coordinates from ORCA-job ./opt_b3lyp_cdz
  C   1.12213493540430      2.97627084095270      9.76078519314818
  C   -0.19029818129454      2.71808161926399     10.11125189870296
  C   -1.10765860452839      2.40936421765719      9.08491934893638
  C   -2.47911571699158      2.12251775070447      9.28268081362533
  N   -3.32288514978691      1.83435811308349      8.29578126096686
  C   -2.84739996393245      1.81552630367846      7.05379957380002
  C   -1.49751232744504      2.08425575431610      6.72537352192532
  C   -0.96560144063943      2.07140980587491      5.41879886496691
  C   0.37778301576508      2.35547085044775      5.25573026855043
  N   1.22331601151551      2.64510504653850      6.25243715788168
  C   0.75460277447256      2.66679694946017      7.50736388175289
  N   1.59615820093028      2.95600101681692      8.50893419144134
  N   -0.62431880908753      2.38528071353600      7.77400044515835
  H   1.85732799718895      3.21895350660838     10.53670788284428
  H   -0.53590536807785      2.74497461712676     11.14380557355375
  H   -2.86701351837234      2.13858661357717     10.30408657061242
  H   -3.53837716465492      1.57912752363603      6.24098974601347
  H   -1.62047175852677      1.84033315092837      4.57970658752437
  H   0.81898506806107      2.35295560579260      4.25233721859503
