28
Coordinates from ORCA-job ./opt_b3lyp_cdz
  C   1.99597548359273      4.64723857383522     -1.55268186861296
  N   1.82097991280318      3.61497500403449     -0.53918636216745
  C   2.08458838360735      3.97269192816764      0.84340035456769
  C   1.44753311823165      2.34265757094566     -0.86751111944135
  C   1.29920228346309      1.34141581964674      0.11019877577354
  C   0.91105454651939      0.05496395056987     -0.28310490452724
  C   0.73588964936219     -1.01563590429985      0.63032513346821
  C   0.35107887918506     -2.26746057892262      0.18580356708207
  C   0.12772001673735     -2.50142738274325     -1.17193083656056
  C   0.29234247517011     -1.46473492660894     -2.10168051989300
  C   0.08828876420267     -1.61217009826595     -3.49484610615200
  C   0.28132764643903     -0.52073603000940     -4.31444006551052
  N   0.65409525197646      0.69603146353504     -3.89413681814633
  C   0.85842304031565      0.88298714150297     -2.58233229736270
  N   1.22754804717802      2.09363168949845     -2.17414348608483
  N   0.68370897338477     -0.19120013686952     -1.64834501143951
  H   3.03732489941545      5.01682897816944     -1.55684899621614
  H   1.75947210976106      4.21821495870241     -2.53194085522760
  H   1.32529217419249      5.50247094131944     -1.35508919117010
  H   1.20071968954147      3.81006326432106      1.48523268840426
  H   2.92675587350372      3.39594875967724      1.26677011186468
  H   2.34514373179152      5.03814483678618      0.88957431013059
  H   1.47315415881996      1.51327089101798      1.16869194324530
  H   0.91504733059556     -0.81256720047508      1.68598473008036
  H   0.22070760604626     -3.08075869379844      0.90431575696628
  H   -0.17582123241768     -3.47894612338189     -1.54489554490389
  H   -0.21548099460456     -2.58393488785422     -3.88219863743978
  H   0.12828818118494     -0.61621380850265     -5.39610475072821
