28
Coordinates from ORCA-job ./opt_b3lyp_cdz
  C   -1.99909756412256      3.27521826662861     -0.10808391007641
  N   -0.65171714567726      3.62837286239782     -0.56187013597115
  C   -0.13497416197097      4.80380111096627      0.12442582478036
  C   0.23802650718855      2.51593903193152     -0.64416207210986
  C   1.17785589322129      2.19578501666271      0.32917052457137
  C   2.01726876154719      1.09361541181373      0.18394031685694
  C   1.91071229153239      0.25502122468554     -0.93323013343740
  C   2.69204836536368     -0.91519356511500     -1.12197508827848
  C   2.49745244063509     -1.66841060066795     -2.25515200734608
  N   1.62016590023103     -1.36577939567899     -3.22665713263461
  C   0.87527679021362     -0.26662001368444     -3.10057250000403
  N   0.02554272987763      0.03942580177762     -4.09523370384053
  C   -0.71332118066206      1.14484107484516     -3.98691460287761
  C   -0.69928561858666      2.00078834258783     -2.90053649351729
  C   0.16227637698327      1.70995689490258     -1.82119428217447
  N   0.97770434491312      0.57507695138854     -1.93355368316280
  H   -2.02657543519379      2.99418132448551      0.96730227090161
  H   -2.67432498556319      4.13385718897261     -0.25692553446225
  H   -2.38714777028826      2.42921081709584     -0.69418871178245
  H   -0.06884074471136      4.68966809217703      1.22953992319784
  H   0.86543063261129      5.05262259342358     -0.25986172461885
  H   -0.80406989422850      5.65678975210089     -0.07416066005195
  H   1.26121749602237      2.81516263597848      1.22423160360975
  H   2.75681758818678      0.84073548989043      0.94299471040286
  H   3.41733825045352     -1.18888153374368     -0.35657473506377
  H   3.07809450991604     -2.58418073678179     -2.41488175169259
  H   -1.36874936490763      1.35826759065337     -4.83988376603362
  H   -1.29589501298499      2.90744837030663     -2.85739254518435
