25
Coordinates from ORCA-job ./opt_b3lyp_cdz
  C   -1.66810573856420      3.82860683568756      0.39032988932064
  C   -1.03116454105134      3.41558082186090     -0.93549614648303
  O   -1.53204887841998      3.83675937353751     -1.97662731454512
  C   0.15485998753048      2.53002359965373     -0.89313995364631
  C   0.66472291032314      2.09459826628035      0.34509795232095
  C   1.76282082549000      1.27256339993381      0.43950060257174
  C   2.42905835329382      0.82860235213686     -0.72486657479615
  C   3.55435016462998     -0.01086085352576     -0.69213900807832
  C   4.14041775511576     -0.39393734959387     -1.88802863240250
  N   3.70338301183463     -0.01505368208192     -3.08543406411877
  C   2.62827646836670      0.78901347676066     -3.15946347206552
  N   2.21775479729283      1.14925564334158     -4.37873919305757
  C   1.15284804153733      1.94665146785182     -4.47240972452088
  C   0.43245035342635      2.43530634374184     -3.39635958265835
  C   0.82099735806355      2.08744799541903     -2.08899270944295
  N   1.94950023266827      1.24182335899325     -1.97777570474455
  H   -2.02330685417778      2.95631714302041      0.96333248552533
  H   -0.96138225153860      4.38297253088156      1.02954087191278
  H   -2.52301356491515      4.47581407825464      0.15840091361223
  H   0.17762399629763      2.41599035688195      1.26539001864580
  H   2.14985583581649      0.94112369621765      1.40233940040800
  H   3.93730026645430     -0.33914675309108      0.27328813147715
  H   5.01955484740226     -1.04871850312029     -1.88657746636040
  H   0.85249313288815      2.21579506259202     -5.49136640790258
  H   -0.42960650976499      3.08281133836583     -3.51169431097147
