25
Coordinates from ORCA-job ./opt_b3lyp_cdz
  C   -0.27367428101751      4.50965788238801      0.45648676258087
  C   -0.41641579865182      3.77493950423579     -0.87439045926799
  O   -0.61055317561717      4.44091728409288     -1.89105603560328
  C   -0.31478823593092      2.30121993058768     -0.87515658076291
  C   -0.09451147885703      1.60111176917399      0.31649420976453
  N   0.01556836914193      0.28884039969645      0.44870330497165
  C   -0.08895810165865     -0.48229833092685     -0.65112089817556
  N   0.02630661040482     -1.79669343475535     -0.49652111051199
  C   -0.07445203644432     -2.59229877185870     -1.57567885379674
  C   -0.29259726665456     -2.12766936471746     -2.84927357361500
  C   -0.42104042186850     -0.73102361888761     -3.05852828541852
  C   -0.64480579806598     -0.17060060316156     -4.32745356702335
  C   -0.76096210274181      1.20229520903521     -4.46694611096988
  C   -0.65766598393815      2.03698148367613     -3.35737994812305
  C   -0.43437028014075      1.50958801287884     -2.07556485146655
  N   -0.31710538476167      0.10950177762007     -1.93921645143736
  H   -1.05303449933828      4.20678868700657      1.17483985815375
  H   0.70442358104222      4.31853911367846      0.92729571985264
  H   -0.37108400926798      5.58348863961235      0.25326854413939
  H   0.00173237399871      2.15760407555374      1.25328076790563
  H   0.02936528161502     -3.66572574532493     -1.38365107165733
  H   -0.37088644636667     -2.79308880787995     -3.70828958204087
  H   -0.72092418319597     -0.84913442823434     -5.17683505396525
  H   -0.93497781159924      1.63968396260387     -5.45292921016659
  H   -0.74322892008585      3.11679537390644     -3.42757752336600
