25
Coordinates from ORCA-job ./opt_b3lyp_cdz
  C   1.04936680478465      4.93955409139127      0.28592890151822
  S   2.60537830008277      4.00308595469386     -0.05961140172473
  O   3.30830590078798      3.84815330711947      1.28927498138562
  C   1.78081623499416      2.39321766441570     -0.40467391369547
  C   1.92304978461910      1.41495799564713      0.55844595895297
  C   1.36649448134928      0.13641644492466      0.34123344076764
  C   1.45352407900451     -0.91804720529342      1.27316450105913
  C   0.86953628056102     -2.13176885701424      0.96103629035884
  N   0.21854090323484     -2.38894739504671     -0.17631228727449
  C   0.11334526658370     -1.41713927548111     -1.09435582865092
  N   -0.53768898755588     -1.69245430328568     -2.23011411804378
  C   -0.64766285678758     -0.73183849341151     -3.15579591248324
  C   -0.13581439704525      0.54242916612341     -3.02634267957522
  C   0.55878654735018      0.88305259003158     -1.84187337191287
  C   1.12149265846848      2.15156167502791     -1.60594120892503
  N   0.68404323699774     -0.11781368081771     -0.86150100556156
  H   0.55984904014633      4.46247677853048      1.14673452958192
  H   1.36449671137094      5.96170041008865      0.53978313338906
  H   0.40029330716221      4.94107509500479     -0.60209683401706
  H   2.46870442205008      1.62928857259089      1.47813332864608
  H   1.97787055904930     -0.74736465173718      2.21218592342927
  H   0.92421692395089     -2.96447354497169      1.67188458082442
  H   -1.18931810574034     -1.01451310025558     -4.06587004335363
  H   -0.24793303671100      1.29521644417552     -3.80560438650346
  H   1.03029594129201      2.90543431754948     -2.38831257819149
