20
Coordinates from ORCA-job ./opt_b3lyp_cdz
  C   1.45490823142466     -9.41241136603418      4.45169060798341
  C   0.11250581630366     -9.75123652120227      4.32707628963876
  C   -0.84013800959753     -8.76703235960584      3.98606375271504
  C   -2.23102651869783     -9.02284514223076      3.83724901883598
  N   -3.12892473418661     -8.09823528833965      3.51644870686648
  C   -2.70012289577662     -6.85336939854552      3.32183068114879
  C   -1.34360709859170     -6.46490854752473      3.43827565697409
  C   -0.87049336645264     -5.14614717482651      3.23481103707325
  N   0.40894068546465     -4.79708947182834      3.34813743274052
  C   1.28556389598600     -5.74143522174538      3.66992376459239
  C   0.94392396631058     -7.10238441223812      3.90120509577236
  C   1.87728739532357     -8.10447947486093      4.24310621800805
  N   -0.40781746032708     -7.45052309696855      3.77716880532268
  H   2.18497540606448    -10.18133855479739      4.71607292310449
  H   -0.24264794490137    -10.76887843556621      4.48555505707907
  H   -2.58020523884152    -10.04579971701106      3.99770740407438
  H   -3.43434226520305     -6.08874876193168      3.05771774018205
  H   -1.59590669601281     -4.37335146395127      2.97022318771868
  H   2.33669641172168     -5.45776258639415      3.76364509255569
  H   2.92343041998948     -7.81463300439750      4.33482152761380
