25
Coordinates from ORCA-job ./opt_b3lyp_cdz
  C   -2.37715749346991      3.41340971125978     -0.26962946444460
  S   -0.73168755710724      4.20916052911707     -0.54939061785119
  O   -0.31618649957853      4.76319671479933      0.81753669890288
  C   0.24325354698228      2.67391238808213     -0.75976169832723
  C   1.01414884420246      2.27172273875092      0.32538022989454
  C   1.81869634340128      1.15044669565626      0.22018194435145
  C   1.87019480378785      0.41670623192788     -0.98379324068835
  C   2.65398247616825     -0.74627641805436     -1.15430801965562
  C   2.63542311103968     -1.39171483470732     -2.37343944268884
  N   1.92370640801813     -0.98694719513920     -3.43225493564288
  C   1.17356282441067      0.11365849540380     -3.32101444763427
  N   0.47950852567235      0.51352712993178     -4.39727575683646
  C   -0.26999675439855      1.61288811156708     -4.30250889044044
  C   -0.40793032395089      2.37565210564548     -3.15705138531346
  C   0.29823463004273      1.99355852152615     -1.99435897975931
  N   1.11276828826697      0.84842667480327     -2.08553350134582
  H   -2.29176966212405      2.80291165172273      0.64050803754801
  H   -3.09459074295043      4.23284994708546     -0.11751818845081
  H   -2.66194735763361      2.80432899746919     -1.14070825871334
  H   0.96037790015188      2.87565366920111      1.23587305364666
  H   2.43177778384613      0.80442473250709      1.05198258253424
  H   3.24925378664064     -1.10528798488789     -0.31578822185469
  H   3.23007615333940     -2.29988775881784     -2.52404049049339
  H   -0.80255513029745      1.90186802674138     -5.21607344037409
  H   -1.01781390446041      3.27703111840754     -3.14229356636297
