23
Coordinates from ORCA-job ./opt_b3lyp_cdz
  F   1.35547248822068      4.52014305027178      0.56462252251693
  C   2.18756114155851      3.77999714274150     -0.20159569148295
  F   3.38767461498268      3.76436703732411      0.41564158120378
  F   2.33845083708020      4.43711575484631     -1.37115355544958
  C   1.63761487366566      2.38671292520552     -0.40610257520382
  C   1.99310755988990      1.36987114519207      0.46975539567539
  C   1.44045158483401      0.08138886500422      0.32088441849261
  C   1.74925038313970     -1.00124261275674      1.17199481620962
  C   1.14998748442039     -2.22406914518980      0.93674244096781
  N   0.28561097371538     -2.46643641526094     -0.05314506020941
  C   -0.03507627415495     -1.46802012382660     -0.88721978067846
  N   -0.90014232331252     -1.72478625109220     -1.87659592785214
  C   -1.22627451586271     -0.73755127306157     -2.71727037150163
  C   -0.73185617527366      0.55006737723039     -2.64275727508381
  C   0.18190401419507      0.86923183715882     -1.61466582063328
  C   0.74758655654811      2.14851184396060     -1.44605150164811
  N   0.53410506147623     -0.15847762268234     -0.72444285368596
  H   2.69885709542157      1.53642176758161      1.28078139534895
  H   2.44935195622561     -0.84475777414632      1.99136806218127
  H   1.37476927491611     -3.07779179179428      1.58640761409959
  H   -1.93745435111342     -1.00610793580672     -3.50686033914071
  H   -1.02356748086587      1.32662509484746     -3.34839709740873
  H   0.46990522029335      2.93069710425316     -2.14959039671741
