23
Coordinates from ORCA-job ./opt_b3lyp_cdz
  F   3.06377487732961      4.08150064429389     -0.89213920614438
  C   2.08323399644005      3.61039069855618     -0.10092946572752
  F   1.08089557813486      4.50792941027105     -0.11063650854739
  F   2.57027358348824      3.56114239998484      1.16224954755188
  C   1.60437541265265      2.24442127672370     -0.56795934467080
  C   1.68532748489352      1.15353476477895      0.26410331591083
  C   1.22198055631972     -0.09814852026327     -0.22004617129377
  C   1.25384996058374     -1.27830484100563      0.53805464054013
  C   0.78180548762666     -2.47368742014716      0.00007197084019
  C   0.27660517836339     -2.50696496088236     -1.28949316471141
  C   0.23361277902083     -1.33326393159334     -2.07310816651862
  C   -0.26679470383572     -1.29192833277850     -3.39362690888251
  C   -0.26134369071721     -0.08819160339218     -4.06957574989912
  N   0.18933196110675      1.06440816812576     -3.56166709292098
  C   0.67219204957309      1.07271729137709     -2.31423394963965
  N   1.11970373388393      2.22793670633264     -1.81440422500150
  N   0.70996661685503     -0.13251805450033     -1.52662091057053
  H   2.08808420353391      1.21499645096640      1.27194331315859
  H   1.65624540867147     -1.22275076716827      1.54882590927042
  H   0.81053908816461     -3.38760390704208      0.59798619899598
  H   -0.09923041571738     -3.42688470010663     -1.73622335982992
  H   -0.64317652944576     -2.20966917845670     -3.84333076298893
  H   -0.64452261692598     -0.03287159407410     -5.09492990892101
