22
Coordinates from ORCA-job ./opt_b3lyp_cdz
  C   2.07410149930922      3.58810326003639      0.14949454326459
  C   1.32234502924232      2.28785786259040      0.11746910525088
  N   2.05565877674170      1.17086842209496      0.03679566812506
  C   1.38913603859421      0.00326054068089      0.03465070812518
  C   2.07804615166462     -1.22284098331759     -0.04651622689613
  C   1.38252674852357     -2.42380445718883     -0.05057773047798
  C   -0.00857151822988     -2.44009445071150      0.02556506467596
  C   -0.72395376630527     -1.23625861276240      0.10764341291274
  C   -2.13838642895603     -1.14287280373883      0.18942702215144
  C   -2.71734364001073      0.10176171406812      0.26637607046615
  N   -2.03613460441980      1.26538664164556      0.26988876684844
  C   -0.71096668947541      1.21697723415866      0.19371217196655
  N   -0.00786711804499      2.36420944442033      0.19210632917522
  N   -0.01552573898005     -0.02717371610712      0.11172300376592
  H   2.24108551186603      3.88335665917952      1.20061033781957
  H   3.05487706279418      3.47941358465003     -0.33227857466144
  H   1.48293597330275      4.38266273824913     -0.32589694846742
  H   3.16347544228444     -1.16544239282853     -0.10492690458795
  H   1.93180818427460     -3.36632630224240     -0.11419977810363
  H   -0.57292354970494     -3.37211693813569      0.02382388902927
  H   -2.72811559083143     -2.05890065832310      0.18947890984717
  H   -3.80687777363906      0.19759321358200      0.33084115977041
