21
Coordinates from ORCA-job ./opt_b3lyp_cdz
  N   1.99409293470346      3.45604100374678      0.13742629404919
  C   1.31931154864370      2.28569027774921      0.12986830622605
  N   2.06626771261457      1.16869931358853      0.04864967567822
  C   1.39745545388357      0.01194447005909      0.04113934431577
  C   2.08216478599571     -1.22025473799391     -0.04096044366677
  C   1.38444456567610     -2.41799811665592     -0.04844791295656
  C   -0.00792110658814     -2.43368320048303      0.02485193599521
  C   -0.72038140503863     -1.22965496103095      0.10734679832244
  C   -2.13308142677280     -1.13852698130923      0.18566629623613
  C   -2.71402564387137      0.10679483297111      0.26271392467255
  N   -2.03806343182205      1.27063159251047      0.27012660492420
  C   -0.70897690195049      1.22826977305223      0.19811926138229
  N   -0.01745046311097      2.37143188507485      0.20404048554053
  N   -0.01050362531019     -0.01900864358262      0.11467672383475
  H   3.00293874846948      3.44716982745791      0.08485694894749
  H   1.47514886906698      4.32106723972388      0.19840597163758
  H   3.16810333961705     -1.16790777990039     -0.09668075887113
  H   1.93303447775948     -3.36109013873581     -0.11261126072014
  H   -0.57336672692187     -3.36496131531204      0.02024961944620
  H   -2.72178622375405     -2.05516431296887      0.18282405980770
  H   -3.80436548128955      0.19960997203872      0.32397812519830
