19
Coordinates from ORCA-job ./opt_b3lyp_cdz
  C   1.23676230492743     -6.61893589581477     -8.39848142314619
  C   -0.15073989681862     -6.86016064266695     -8.31162262244493
  C   -0.94317228331158     -6.01902687717689     -7.54417863785066
  C   -2.37269792520886     -6.16406478995268     -7.37902593401642
  N   -3.12206534367216     -5.37584205103130     -6.65863760039923
  C   -2.51291786476492     -4.33871389773264     -6.01368685752404
  C   -1.15437037244251     -4.09745046878530     -6.09483126039257
  C   -0.44431745768435     -3.02477168020243     -5.44293586843407
  N   0.84058119171852     -2.82690929548684     -5.54197756220700
  N   1.60134803097489     -3.65917410429725     -6.29704210801065
  C   1.02262154960507     -4.67790717883966     -6.93422240901050
  C   1.81091541799270     -5.56246935697321     -7.73285733708012
  N   -0.35707078050467     -4.94345738633873     -6.86675446848375
  H   1.86135074600322     -7.28099906948008     -9.00280251942568
  H   -0.62310534829168     -7.69247980434901     -8.83218575422221
  H   -2.85065653626897     -6.99962733331564     -7.90105468940131
  H   -3.14073468816758     -3.68028161398166     -5.41145937903816
  H   -1.01357058236812     -2.32694281855399     -4.82281747238042
  H   2.87650983828224     -5.34175573502088     -7.77358609653205
