20
Coordinates from ORCA-job ./opt_b3lyp_cdz
  O   2.21066880636149      3.50511591855233      0.06790398220271
  C   1.46764232627916      2.37853546496647      0.09880567153754
  C   2.14758125401376      1.15956956602553      0.00656272137966
  C   1.43639991101940     -0.04154522304812      0.03269334983153
  C   2.03589895814642     -1.32869921435776     -0.05465780689669
  C   1.23114005594985     -2.44056469671822     -0.01806896971542
  N   -0.11450038739502     -2.41338637094383      0.09673647352264
  C   -0.70882168984904     -1.23259522082597      0.18068440893061
  N   -2.05239645440164     -1.17195169303787      0.29631254095172
  C   -2.59880738290546      0.03485702256683      0.37696577910887
  N   -1.99834704568149      1.22441340384155      0.35990235188035
  C   -0.65534712977634      1.20512152715805      0.24542948895414
  C   0.07732608270377      2.39955491779511      0.21721202126784
  N   0.03979603102917     -0.01599977892242      0.15177919027991
  H   1.62531583882322      4.27529041962337      0.13944760839029
  H   3.23209948936393      1.13931155943976     -0.08596163448498
  H   3.11894384745741     -1.39943625787233     -0.14840744783235
  H   1.67393583511758     -3.44039398282931     -0.08404034336724
  H   -3.69156543948357      0.05710987396252      0.47043216587103
  H   -0.49537290677267      3.32428276462431      0.29199844818788
