20
Coordinates from ORCA-job ./opt_b3lyp_cdz
  O   2.11889757128618      3.34398089836828      0.31689998172202
  C   1.41538739521254      2.20931363012567      0.26304888579918
  N   2.13732904419490      1.09913683198296      0.14281276473900
  C   1.43657948890227     -0.04338598620902      0.08824885585228
  C   2.09125100677348     -1.28483678384423     -0.03883395853334
  C   1.36441622255038     -2.46490431745762     -0.09504331566584
  C   -0.02776119450716     -2.44834146344996     -0.02709095282717
  C   -0.71095757833269     -1.23163320163399      0.09940313449871
  C   -2.12319464400555     -1.10733997258223      0.17657171457182
  C   -2.67370046442927      0.14569507307356      0.29947673319096
  N   -1.96423932516637      1.29222089604335      0.35394175716074
  C   -0.64219884692571      1.21395924198272      0.28472423325515
  N   0.09100564980416      2.33783966879757      0.33640841574110
  N   0.02854776958398     -0.04127139147367      0.15580129669602
  H   1.45709729495102      4.05385869361197      0.40337428772363
  H   3.17824447395608     -1.25540510380333     -0.08864397354495
  H   1.88984028983995     -3.41790238111549     -0.19372020245630
  H   -0.61585966662074     -3.36450151223602     -0.06958823184171
  H   -2.73389871234580     -2.00855305821622      0.13628983429618
  H   -3.76082577472164      0.26579023803565      0.36070873962251
