20
Coordinates from ORCA-job ./opt_b3lyp_cdz
  O   -0.83308325615820      3.54664277638786     -0.18690995906600
  C   -0.09594208416451      2.43393135519483      0.12070043888035
  C   1.20411602944590      2.45393629149519      0.60074161941863
  C   1.87197128227689      1.26123514869092      0.88526201910570
  C   1.24825279211028      0.02491091954825      0.69363348426987
  N   1.88922603336298     -1.13909594039405      0.96743247043985
  C   1.19745919123756     -2.24637020491341      0.74666260567081
  N   -0.05073168680366     -2.37148901203085      0.28898875442185
  C   -0.71882635499093     -1.24119308497497      0.00617028150878
  N   -1.96683244108671     -1.31210459161115     -0.45316547229873
  C   -2.61571904480796     -0.16607387278826     -0.72932018228615
  C   -2.08292954158973      1.09466626686501     -0.57197457758549
  C   -0.75723569296672      1.19911435969127     -0.08496187808092
  N   -0.07324211656445      0.02041467918102      0.20512850784846
  H   -0.29779143815374      4.33453592611716     -0.01388200237296
  H   1.71065682126145      3.41113276464924      0.75791337363080
  H   2.89224728550786      1.24241364363338      1.26309080881364
  H   1.71592984095153     -3.18730663078933      0.96807752850192
  H   -3.63839695467073     -0.28606487039418     -1.10385071383197
  H   -2.63230866419703      2.00320407644208     -0.80386710698837
