20
Coordinates from ORCA-job ./opt_b3lyp_cdz
  O   -0.63582228201371      3.58288034337550     -0.17813511099060
  C   0.08380090504903      2.44632417438628     -0.05123462847191
  C   1.46059608861217      2.43731088805206      0.10059703496787
  C   2.13847338835788      1.21765324861020      0.22629640309135
  C   1.45378766090052      0.00224567287798      0.20193518265930
  C   2.04962549707027     -1.29303299728465      0.32162924455992
  C   1.24825196904557     -2.39826665449485      0.27981792186517
  N   -0.10698672079860     -2.36324829771135      0.12944615473468
  C   -0.69254815227523     -1.19382765963655      0.01610522805050
  N   -2.04352389396821     -1.11603435496931     -0.13563755963471
  C   -2.58581259318062      0.08324147761256     -0.24555229923558
  N   -1.96926936615135      1.27270349918665     -0.22769435951036
  C   -0.62942477782263      1.22009320293789     -0.07817813177152
  N   0.06139655458112      0.02626130310921      0.04786073102790
  H   -1.56589460725006      3.28085062264630     -0.26778147337118
  H   2.00003268814124      3.38598158336403      0.12013370709059
  H   3.22123010524104      1.19248443987052      0.34647409639868
  H   3.13029288950725     -1.36303117690716      0.44328280896454
  H   1.67945936289606     -3.40022931341341      0.36913673362049
  H   -3.67528471594123      0.11191999838765     -0.36656168404493
