20
Coordinates from ORCA-job ./opt_b3lyp_cdz
  O   -0.60809340048768      3.63574406521951     -0.16459280207040
  C   -0.00680075402413      2.41520533935911     -0.02547124998053
  C   -0.65032606353268      1.21397186838960      0.10762829182583
  N   -0.01328375068603      0.02268633390347      0.24359686444848
  C   1.30102314130204      0.00293621806265      0.24988884774149
  N   1.96099273164461     -1.17877078127960      0.38492438154911
  C   3.27910523834270     -1.13604991444916      0.38417706094631
  N   4.08191522960978     -0.06749345137399      0.26631025517703
  C   3.46859598105379      1.11591860736048      0.13124667618794
  C   4.21154996016277      2.31280764027755     -0.00127556045492
  C   3.57344623146196      3.53251941607696     -0.14048051155993
  C   2.17706361180196      3.61048853029794     -0.15340449682374
  C   1.42546520257976      2.44054324894890     -0.02396073477386
  N   2.06304801345865      1.20696098566892      0.11676828931952
  H   -1.56899596901673      3.51079144775015     -0.15344523261929
  H   -1.74693614498872      1.17297011518441      0.10881195808188
  H   3.79092104880454     -2.09995636584322      0.49427160328232
  H   5.29514593217916      2.20848591283331      0.01370882402313
  H   4.16611934909503      4.44492152306484     -0.24143691526232
  H   1.64460441123916      4.55211926054816     -0.26109554903806
