19
Coordinates from ORCA-job ./opt_b3lyp_cdz
  F   2.03345983847522      3.55481420763435     -0.13156521649629
  C   1.37062948006323      2.39450214128109     -0.04648437429333
  C   2.09527699699076      1.21114381698586     -0.09740618354696
  C   1.40986743264754     -0.00791125122528     -0.00970646823106
  C   2.03751475721795     -1.28046683526377     -0.04970743154916
  C   1.25694654982892     -2.40819322639415      0.04560243335717
  N   -0.08506456784266     -2.40242341696391      0.17680960125599
  C   -0.70554566318745     -1.23142028559488      0.21789107525759
  N   -2.04781826131867     -1.19733117203596      0.34874982380863
  C   -2.62348175801710     -0.00231500187802      0.38509538666370
  N   -2.05035750778457      1.19874414805965      0.30882257707472
  C   -0.71125078363044      1.20727256872088      0.17755813827910
  C   -0.00674127200716      2.41964589596877      0.08816390808578
  N   0.01545116158647     -0.00085172651032      0.12667979841894
  H   3.17835574176439      1.21854323614517     -0.20378192950464
  H   3.12054552371720     -1.33122359791997     -0.15482220687235
  H   1.72022832141987     -3.40038279333683      0.01687642733582
  H   -3.71495446986154     -0.00154005073670      0.49187754634756
  H   -0.57228152006195      3.34759334306404      0.12783709460884
