18
Coordinates from ORCA-job ./opt_b3lyp_cdz
  C   0.69387213941059      9.48998047376707     -2.85032448380456
  C   -0.58855411639442      9.58677874321107     -3.39557475228958
  C   -1.49775753585013      8.56341535872531     -3.10909534973575
  C   -2.84961518358200      8.48583432572677     -3.57327414714950
  N   -3.67480264995758      7.50229122312762     -3.27966456154180
  C   -3.22165799816931      6.50575938507853     -2.49392277378640
  C   -1.92259942687007      6.47604785424213     -1.98360515460626
  C   -1.36582001099408      5.45960834965311     -1.14635211107225
  N   -0.13558729890430      5.48289905012212     -0.69473160772765
  N   0.69259492735113      6.49681845900403     -1.00590478050177
  C   0.26348565330739      7.49631005872795     -1.78441483289449
  N   1.12098817622837      8.49868547316377     -2.07756589621503
  N   -1.06088365478810      7.51835927107989     -2.29956193182647
  H   1.42943519190184     10.27644641185359     -3.05660624723535
  H   -0.89279389069086     10.42143913242929     -4.02526112339526
  H   -3.21590573558443      9.29540289620173     -4.21097574190824
  H   -3.90843432788077      5.69226156488983     -2.25269473414814
  H   -1.99006425853336      4.60985196899613     -0.85915977016147
