19
Coordinates from ORCA-job ./opt_b3lyp_cdz
  F   -1.97502896834073      1.05738152812478     -0.07714810657212
  C   -0.64234207793515      1.13206203250770     -0.02735409678069
  N   -0.02597157964503     -0.02640912094607      0.14992131034363
  C   1.30332684898338     -0.02103197054804      0.20868217532759
  N   1.95949792346731     -1.17746207198054      0.38757545300146
  C   3.29072688318869     -1.11647575950296      0.43903601991710
  N   4.07218112165713     -0.04952289393279      0.33585361720984
  C   3.44549137596150      1.13408430949076      0.15486606664644
  C   4.17275015402836      2.32669928802707      0.03310512930441
  C   3.51247441978348      3.53778139301655     -0.15288868681960
  C   2.12569475451393      3.58838259789443     -0.22121993122876
  C   1.36576961986268      2.41082288932135     -0.10289461222109
  C   -0.04725803589603      2.36528108799361     -0.16006373753547
  N   2.03819144919984      1.19464700017040      0.08430389224343
  H   3.80372251109715     -2.07443396784888      0.58586351453457
  H   5.25636461883431      2.24430872343226      0.09204268780386
  H   4.09141702618201      4.45966588621012     -0.24624395469017
  H   1.59234534802392      4.52727716576934     -0.36634824529242
  H   -0.62386339296678      3.27634188280093     -0.30343849519198
