19
Coordinates from ORCA-job ./opt_b3lyp_cdz
  F   -0.67623282212767      3.52131862049091     -0.39328910099625
  C   0.01746632826810      2.38822709848488     -0.20513891222447
  C   1.38354321559728      2.42029208045968     -0.02305066655468
  C   2.08425802432691      1.22769239881977      0.17111451780916
  C   1.41027912147567      0.00239260256065      0.18207629926895
  C   2.03345473454512     -1.26486268504387      0.37201222895817
  C   1.25746179980889     -2.39407560081615      0.36105574660797
  N   -0.08493568060547     -2.39913314381194      0.17989786630534
  C   -0.69902585377143     -1.24415024995069      0.00068082453491
  N   -2.04066813584617     -1.22069363844095     -0.18259687726208
  C   -2.61291092192356     -0.03991175137328     -0.35839170209678
  N   -2.04011467687831      1.16759495533269     -0.38162849315087
  C   -0.71145056799759      1.17552419373685     -0.20264666758574
  N   0.02115938600795     -0.00562932624407     -0.00514760374523
  H   1.89519004610835      3.38457075489953     -0.03416814333196
  H   3.16344454346736      1.22538366023378      0.31727645693170
  H   3.11209912703841     -1.30166691532967      0.52102128485566
  H   1.71301043964240     -3.37939331999835      0.50470095855808
  H   -3.69970810713625     -0.05131973400968     -0.50426801688187
