20
Coordinates from ORCA-job ./opt_b3lyp_cdz
  S   2.44194747591421      3.66620498465302      0.41565276822940
  C   1.45211010060541      2.19672084835684      0.32183385708114
  N   2.16022242678878      1.07496712942026      0.17788521435537
  C   1.45180061308293     -0.06369864308587      0.10225293916318
  C   2.09475128507793     -1.30710535891931     -0.05028961498671
  C   1.35478557591655     -2.47872615696422     -0.12757493376553
  C   -0.03638736073571     -2.44798631881285     -0.05587792800998
  C   -0.70686000261787     -1.22603244978400      0.09590999922646
  C   -2.11769585679505     -1.08800241808208      0.17894417316834
  C   -2.65408006379861      0.16840429619832      0.32736081236259
  N   -1.93110658590240      1.30552687942784      0.40211287354113
  C   -0.61062311822040      1.21470869390036      0.32820594358822
  N   0.13214060658048      2.33581895475868      0.40051204780444
  N   0.04480173659767     -0.04571311858895      0.17344926721621
  H   1.37364449493303      4.49345900397336      0.54902282589277
  H   3.18187519292715     -1.28795426788290     -0.10213062183313
  H   1.86945006779372     -3.43529927538023     -0.24593822044490
  H   -0.63457526334666     -3.35669691484931     -0.11462367760601
  H   -2.73843834908078     -1.98148811850008      0.12277254500133
  H   -3.73957297572043      0.29958225016107      0.39359973001561
