20
Coordinates from ORCA-job ./opt_b3lyp_cdz
  S   -1.07662140340746      3.80477478002659     -0.43829348047137
  C   -0.07989524358873      2.34961910510400     -0.13371300900202
  C   -0.68051798217373      1.11237858291035     -0.01599366747042
  N   -0.02531185069694     -0.05168197205561      0.13959663579734
  C   1.29951835360771     -0.02767365255265      0.20071456641858
  N   1.97158667687630     -1.18306685208407      0.37206516924177
  C   3.29631775048175     -1.11315454220945      0.43094337072274
  N   4.07058819948378     -0.03428980313317      0.33914752196519
  C   3.43348954746371      1.13941164757497      0.16308670890454
  C   4.16036494390029      2.33938395946178      0.04603438589778
  C   3.50018709222484      3.54286361898092     -0.13934656041283
  C   2.10728103272523      3.58934874813826     -0.20521120135789
  C   1.35347708665960      2.41533784358291     -0.09053447583132
  N   2.02725106430264      1.19646378031636      0.09107644835714
  H   -0.91175347380453      4.40300682479589      0.77709455568929
  H   -1.77268060519837      1.04387758067539     -0.05156329083480
  H   3.81948208383814     -2.06638013447650      0.57330879716121
  H   5.24407319778132      2.25654008671224      0.10633496060652
  H   4.07419821748999      4.46755786955804     -0.23544518826250
  H   1.57122531203441      4.52210252867376     -0.36425224711899
