19
Coordinates from ORCA-job ./opt_b3lyp_cdz
  Cl  2.24040187610281      3.91831993427436     -0.15232045800945
  C   1.37636828643363      2.40385877323689     -0.04390846130229
  C   2.09366848080133      1.21152328385382     -0.09484203829455
  C   1.40756077371813     -0.00864731262082     -0.00859275283037
  C   2.03685279346368     -1.28040044800742     -0.04959238616355
  C   1.25677442526600     -2.40880790893488      0.04437851453182
  N   -0.08546153832219     -2.40356334230339      0.17502593417285
  C   -0.70648136168497     -1.23289820377731      0.21686971340841
  N   -2.04917650631720     -1.19792321398187      0.34713873050120
  C   -2.62395972091497     -0.00262370161605      0.38404461617509
  N   -2.04915114756535      1.19822244492772      0.30893466349033
  C   -0.71013559270945      1.20414189563918      0.17842597614418
  C   -0.00469162775027      2.41848057656186      0.09045668159982
  N   0.01427766250049     -0.00277302598279      0.12703127998371
  H   3.17637656837048      1.20108750017132     -0.20024775490891
  H   3.11995139324180     -1.33019776429280     -0.15424692706309
  H   1.72034783878458     -3.40079295270824      0.01502286972042
  H   -3.71542179159361     -0.00080862748711      0.49042085653082
  H   -0.58521081182490      3.33658209304754      0.13243094231356
