19
Coordinates from ORCA-job ./opt_b3lyp_cdz
  Br  -2.56607676702814      1.03981093530971     -0.10827365895525
  C   -0.65097974875878      1.13239960477240     -0.03198089271013
  N   -0.02317038639225     -0.02603092898984      0.14639659882758
  C   1.30603620749520     -0.02146852404031      0.20699933238914
  N   1.96287197058598     -1.17885146193821      0.38672975833136
  C   3.29278744921391     -1.11745637536128      0.43982520270082
  N   4.07494286863995     -0.04893850962152      0.33760947027412
  C   3.44747714905049      1.13282566298949      0.15619130868599
  C   4.17404595677226      2.32840636841828      0.03509255234695
  C   3.51394281604374      3.53774541621843     -0.15128721996320
  C   2.12538633591250      3.58651615718717     -0.22116679089973
  C   1.36979659812328      2.40830437787147     -0.10370751476243
  C   -0.04733580217215      2.36229483157991     -0.16282291128770
  N   2.04175004652301      1.19333477661836      0.08394655496921
  H   3.80654749008184     -2.07490198722888      0.58713030289009
  H   5.25773020261105      2.24689031145626      0.09524661351127
  H   4.09195653463294      4.46024694029515     -0.24391068024305
  H   1.59064306403768      4.52450945311870     -0.36676038365566
  H   -0.60733198537251      3.28294295134472     -0.30725764244938
