19
Coordinates from ORCA-job ./opt_b3lyp_cdz
  Br  2.25674014078414      3.91227277720459      0.09380991435918
  C   1.29378607928771      2.25162506289689      0.09891926996159
  N   2.05119534153883      1.17046587273954      0.02200949689618
  C   1.38473135672948     -0.00322826394170      0.02487776953928
  C   2.07537723987312     -1.22447678887602     -0.05226154307740
  C   1.37969798894590     -2.42727965252996     -0.04852639275412
  C   -0.00999631633468     -2.44387467556129      0.03148246091522
  C   -0.72647693012916     -1.24015167592042      0.10952859170902
  C   -2.14162322080114     -1.14929226298886      0.19420311308695
  C   -2.72428146562970      0.09233549695061      0.26560524075556
  N   -2.04156664395206      1.25807143539591      0.26153668180451
  C   -0.72253779979092      1.21039979023925      0.18382141236314
  N   -0.01559470663902      2.36245626550509      0.17808477239537
  N   -0.01971355432515     -0.03132115585267      0.10536428846469
  H   3.16060496751327     -1.16691951887310     -0.11342327626778
  H   1.92995895230440     -3.36917641589655     -0.10904653266884
  H   -0.57356444934121     -3.37629065287616      0.03578994239112
  H   -2.72836360040869     -2.06714727687679      0.20026781330966
  H   -3.81313337962511      0.18869163926165      0.33151697681669
