24
Coordinates from ORCA-job ./opt_b3lyp_cdz
  C   1.33788811767531      4.80912749290945     -0.43293382889380
  N   1.81848938177567      3.59565175602566      0.19607919694687
  C   1.39528129670204      2.34144154585838     -0.11922672928565
  C   1.90699867224510      1.22607801529514      0.58396872951675
  C   1.49673688444571     -0.06660543289867      0.27889390134093
  C   1.96722661139192     -1.23823095824876      0.94147856254187
  C   1.48654766204056     -2.46171536924945      0.54971751529644
  N   0.58151004504869     -2.65770034714338     -0.43573805709702
  C   0.12074388463539     -1.59249502720376     -1.07475095548154
  N   -0.78363826028631     -1.75093926130411     -2.06348770959418
  C   -1.21221190824542     -0.64917173463774     -2.67067139492261
  N   -0.87247347515178      0.61684487371309     -2.44164143006344
  C   0.03233221698134      0.81840553208866     -1.45796315025639
  C   0.45479641091402      2.11215126033261     -1.13893851225812
  N   0.55853174689937     -0.27457600902458     -0.74270502809439
  H   0.25120049064135      4.94731309340987     -0.28895984773935
  H   1.85567034253926      5.66872351983405      0.01368853377211
  H   1.54223796354198      4.81247745936803     -1.51778500000663
  H   2.46783823948036      3.68555172660445      0.96527488735349
  H   2.63867072988284      1.35610724891745      1.38265073871295
  H   2.69771170251630     -1.13304018530818      1.74318005634219
  H   1.83740306282064     -3.37244486408082      1.04783579156563
  H   -1.94709167615510     -0.80467073275934     -3.47058981734752
  H   0.01067985766045      2.91204639750226     -1.72577645234835
