24
Coordinates from ORCA-job ./opt_b3lyp_cdz
  C   -2.45517827529763      1.84576756756199     -1.09799308991917
  N   -2.00222004092712      1.66078092843365      0.26859485222797
  C   -0.77738607306402      1.19747971907580      0.63182628206507
  N   0.07799873994391      0.88836876366477     -0.36791115435217
  C   1.28654408627071      0.43190815279517     -0.07686640576279
  N   2.12857225935617      0.12767234999808     -1.08246420049086
  C   3.33433561857743     -0.32842600385609     -0.74137699309136
  N   3.83400627798875     -0.52967740577996      0.47054955093985
  C   3.01647477215907     -0.23493277753176      1.50801899542022
  C   3.43376747989793     -0.40651550847177      2.83045016871913
  C   2.57108090381519     -0.09497317027955      3.88561405292163
  C   1.29643358269674      0.38577384313370      3.64552014335533
  C   0.83639086521537      0.57326500227358      2.31897943413039
  C   -0.43523870380171      1.05369432384036      1.98549171438045
  N   1.71358327683954      0.25637595270363      1.26866433783639
  H   -2.71399235053102      2.90150990707895     -1.29075214449091
  H   -1.64009126694382      1.54825022578376     -1.76822141790246
  H   -3.34209345483547      1.22345115118749     -1.30974998413620
  H   -2.64102352010198      1.89136199210351      1.01878457635545
  H   4.00160117836195     -0.56912509256307     -1.57846408723250
  H   4.44225567163849     -0.78651171162267      2.98109937722592
  H   2.90941692054934     -0.23355312085682      4.91562085012003
  H   0.61427905338187      0.63241739713401      4.45897563195928
  H   -1.12956700118967      1.30474751419343      2.78743950972131
