24
Coordinates from ORCA-job ./opt_b3lyp_cdz
  C   -1.10920774815873      3.77872362637219     -1.43371227521784
  N   -1.34168117551117      3.25853242932955     -0.09747157636042
  C   -0.43278095946024      2.33953754866550      0.44958761155182
  C   0.75280500608903      1.94967248982800     -0.17050147418529
  C   1.62505615771526      1.05018269550639      0.44504750316569
  C   1.32407040279017      0.48446248683711      1.68303462999740
  N   2.14543484054303     -0.43214862387453      2.26235631547731
  C   1.75067769219664     -0.90685169570286      3.42895308280091
  N   0.65039238505877     -0.59477257754567      4.12616402700454
  C   -0.17530490821842      0.31538398820409      3.59521253305501
  N   -1.27145362643750      0.67659343465350      4.26763073819526
  C   -2.06857690785555      1.61131018931414      3.72870640728267
  C   -1.86155348708756      2.20978544204170      2.50314197872043
  C   -0.72633804271983      1.82338802633864      1.74560948592269
  N   0.13250786510354      0.88763884848937      2.31853609798937
  H   -1.03148836900355      2.99787406834605     -2.21877302948080
  H   -1.93802225352703      4.45149527014828     -1.69695738455871
  H   -0.18034869037585      4.37178150302582     -1.45292622018678
  H   -2.30785214831062      2.96787355633760      0.03950479141049
  H   1.00854062970915      2.34309963921505     -1.15465535293541
  H   2.55444978624111      0.73273434700187     -0.02430093335643
  H   2.40646189611807     -1.65374023907455      3.89289671220467
  H   -2.93526343338832      1.89612272424046      4.33626475180307
  H   -2.51324491151229      2.99844082230360      2.13562157970073
