23
Coordinates from ORCA-job ./opt_b3lyp_cdz
  C   -2.76685957932007      1.49088866699322     -0.81329924568443
  C   -2.01193794747894      1.67798998280882      0.27952412906512
  C   -0.66564856952203      1.11024727894044      0.43921361849373
  N   -0.18131036246569      0.35917410229685     -0.58752617284997
  C   1.02092293505551     -0.17170563154714     -0.49258031834056
  N   1.50298709762164     -0.91871029887415     -1.51293915851398
  C   2.71748366263731     -1.43023687254905     -1.36843528634434
  N   3.55487356607863     -1.31234656303209     -0.33628923697903
  C   3.11118086153640     -0.57637364662629      0.69922207532098
  C   3.90733043816973     -0.38146262964212      1.84506440916073
  C   3.43955013819851      0.37939815401423      2.90709191082371
  C   2.17537519883104      0.96419899255347      2.86041219531649
  C   1.35821712678118      0.78897915416461      1.73348755757006
  C   0.06038008933112      1.34231119443364      1.59232511516820
  N   1.83702876083738      0.02004132091449      0.66595887272756
  H   -3.76355234028243      1.93024995615443     -0.89397192225072
  H   -2.38901369343393      0.89053413044996     -1.64372870764943
  H   -2.38206020966497      2.27807731341558      1.11663462395551
  H   3.08402843504730     -2.03126210232505     -2.20974428187399
  H   4.88724343235867     -0.85543937194684      1.84033243358721
  H   4.06869734347465      0.52153735889382      3.78909700330703
  H   1.79061768023220      1.56477858236604      3.68409788349090
  H   -0.33726406402260      1.94527092814387      2.40852250249956
