23
Coordinates from ORCA-job ./opt_b3lyp_cdz
  C   1.44553433475818      4.75890188549933      0.22874505945464
  C   2.03208215747267      3.55638277918813      0.15010566056333
  C   1.28125428145101      2.28826043058614      0.13937714513262
  N   2.02621364605176      1.17773218559918      0.05631397899064
  C   1.37036004409375      0.00355523153904      0.04456209331675
  C   2.07117581520993     -1.21362863554566     -0.04007014069177
  C   1.38638066906892     -2.42246228496039     -0.05160690136187
  C   -0.00314287325760     -2.45197961726541      0.02019117141506
  C   -0.73189124741694     -1.25419291056348      0.10547683419990
  C   -2.14613900253425     -1.17712096260299      0.18264134981959
  C   -2.73870724963727      0.06253872714935      0.26229557341017
  N   -2.07169451655234      1.23211264197995      0.27332288492229
  C   -0.74333232910057      1.19981706846355      0.20257708515073
  N   -0.05418388071045      2.34852346729420      0.21187495432715
  N   -0.03505492591021     -0.03961019312485      0.11666111185210
  H   2.03719085289192      5.67734628395519      0.23407151961016
  H   0.35754998012176      4.83685059755998      0.28910084778694
  H   3.11710616859007      3.44288230358764      0.08849864657352
  H   3.15620597069513     -1.14604396632240     -0.09441150033709
  H   1.94494334724456     -3.35930980902832     -0.11774619231299
  H   -0.55884932295542     -3.38917462536801      0.01251794502050
  H   -2.72623463208031     -2.09915426265392      0.17681745064836
  H   -3.82961728749427      0.14585366503377      0.32264342250927
