23
Coordinates from ORCA-job ./opt_b3lyp_cdz
  C   -1.37377423796529      3.81964338037916     -1.17861703083032
  C   -1.17230768560585      3.36120306953674      0.06782637790197
  C   -0.06050862785205      2.50427369327274      0.50527828529732
  C   1.18003812033584      2.51492194997588     -0.15400240559525
  C   2.23965209420886      1.73526170130307      0.26655104585184
  C   2.11689103791115      0.90693072074521      1.39748349107462
  N   3.15813715509608      0.17023020579391      1.82733034357851
  C   2.93992733818888     -0.57303622694289      2.91109350554811
  N   1.82416151968577     -0.68501371235360      3.61938810732318
  C   0.75862724667562      0.03873525619860      3.21600395567650
  N   -0.37570377930087     -0.05384540377122      3.89607180500987
  C   -1.43187348599064      0.66034208136294      3.46162835161756
  C   -1.41519931823539      1.49631399051110      2.37046772968956
  C   -0.21131514159381      1.65316703318826      1.63112813065983
  N   0.87985817931496      0.88309035803042      2.06713954070247
  H   -2.20465691313958      4.49349954539905     -1.39703992387948
  H   -0.73246489701453      3.53817748119682     -2.01854615553890
  H   -1.88206582723247      3.66628038120658      0.84341081304796
  H   1.31447250672624      3.18130755879165     -1.00847051321602
  H   3.21049306708906      1.74272464196359     -0.22579311038505
  H   3.79128158822992     -1.16926998361545      3.26105070575420
  H   -2.35275555313627      0.53600063353848      4.04163907163047
  H   -2.31226438639557      2.02227164428888      2.05528787908103
