23
Coordinates from ORCA-job ./opt_b3lyp_cdz
  C   -0.30245295361477      4.39833666534674     -1.00359253767304
  C   -0.51875366471255      3.74731730479929      0.15048979435775
  C   -0.28976207133817      2.31353157462664      0.37885841386671
  C   -0.52093224725199      1.36404934407181     -0.60331319871025
  N   -0.36130576247136      0.03756948966913     -0.46443191887632
  C   0.02349945634102     -0.43148313702227      0.71458326528688
  N   0.17282282090026     -1.76230687255473      0.87854592777483
  C   0.54306464345906     -2.18675925285264      2.07991075914923
  N   0.79841683813128     -1.46356665925253      3.16898367809652
  C   0.66864437205111     -0.12938516218583      3.03872126452353
  C   0.93208038094769      0.72587461882392      4.12501092680110
  C   0.82712228343753      2.09977427669630      3.97605906143140
  C   0.44427973272614      2.65585228670231      2.75653084082661
  C   0.14129573965799      1.83253234147128      1.66131033731538
  N   0.27304926252497      0.44392662740752      1.81279638914018
  H   -0.55972068694899      5.45480944610984     -1.10689952868005
  H   0.13754316460213      3.90512481852590     -1.87489562859165
  H   -0.92562970969685      4.31385398870685      0.99650615124980
  H   -0.88931387269623      1.68995481723588     -1.58165685803030
  H   0.65427410920156     -3.27219587624636      2.19068638957751
  H   1.23184657650825      0.24817243400211      5.05597962835185
  H   1.05301339363448      2.75592449969494      4.81998747627809
  H   0.38785819460767      3.73384242622378      2.62687936653437
