21
Coordinates from ORCA-job ./opt_b3lyp_cdz
  O   1.55939309646274      4.79657589734516     -0.07493569876103
  C   2.09625954463443      3.71303409787176     -0.11133180642669
  C   1.35846458629579      2.41427993658290     -0.02615672434402
  C   2.07168844471680      1.21731504792697     -0.07766959616549
  C   1.39922177762645     -0.01373984059378      0.00052934901771
  C   2.03536904705581     -1.27924333509476     -0.04280342124721
  C   1.25961161633486     -2.41370800308118      0.04396029134649
  N   -0.08028926791466     -2.41313437244881      0.16896613993727
  C   -0.70954788156214     -1.24312893668127      0.21283953537471
  N   -2.05150406560795     -1.22016745623175      0.33775615979608
  C   -2.63705738976018     -0.02825696162662      0.37728764449586
  N   -2.07156921616700      1.17517543990727      0.30933662928133
  C   -0.73058584556975      1.19499751231678      0.18399964324982
  C   -0.02799631289699      2.40835237134648      0.10324893248222
  N   0.00452211949519     -0.01031393435645      0.13059423721333
  H   3.20674668564802      3.61298038577072     -0.21363146668757
  H   3.15780129867736      1.20668772171866     -0.17890331617068
  H   3.11916754881823     -1.32259287943139     -0.14333770395151
  H   1.72748787337022     -3.40371525865110      0.01284415397559
  H   -3.72885566871784     -0.03665980570684      0.47930860726080
  H   -0.59990799093940      3.33310237311728      0.14501841032300
