21
Coordinates from ORCA-job ./opt_b3lyp_cdz
  O   -2.90897733800821      1.33155967658063      0.06604570816297
  C   -1.95935157282059      1.58290312415918     -0.63427356503252
  C   -0.58025326119339      1.02213293185045     -0.43490350035544
  N   -0.39047725987505      0.17451862306599      0.60508393124486
  C   0.81535198672945     -0.32596179237379      0.79286447909618
  N   1.03511465800297     -1.17464253920084      1.82251212753122
  C   2.26160846441956     -1.65065301897793      1.97033227885958
  N   3.34484492605629     -1.40575461121469      1.22645575255888
  C   3.16844256415464     -0.56727092698645      0.19311210199651
  C   4.24494593163949     -0.23582942873120     -0.66212120906731
  C   4.06153166598581      0.62813304472170     -1.72611277965186
  C   2.80506671955138      1.19027667817941     -1.97512926166211
  C   1.72371063216829      0.88096808501334     -1.14721021647947
  C   0.40696222441728      1.39835791231688     -1.31408968251834
  N   1.91291442590528      0.00540045160941     -0.07024444314290
  H   -2.03853829836838      2.27540620785836     -1.51335110349298
  H   2.41000208347797     -2.33610615870583      2.81337079369528
  H   5.20339731910656     -0.69694882699008     -0.42971462168619
  H   4.90348306244031      0.87391758288085     -2.37737507465552
  H   2.63741588827845      1.87319840497943     -2.80733255429602
  H   0.21412517793185      2.08399457996520     -2.13998916110482
