19
Coordinates from ORCA-job ./opt_b3lyp_cdz
  C   0.70003462423872     10.02005432771039     -2.50658231359248
  C   -0.63077576041877     10.18351409339596     -2.22450824726395
  C   -1.47588792631816      9.04980526873250     -1.99252069752626
  C   -2.83911050228926      9.11827020919024     -1.69955293510036
  N   -3.60993603690525      8.03189964562204     -1.48563908838978
  C   -3.04886267561576      6.84579822162371     -1.55648540317297
  C   -1.66034126260101      6.62746048460190     -1.84854817495814
  N   -1.17639480105777      5.38889143750499     -1.90050593640439
  N   0.14000947694069      5.20823967351518     -2.17877011565319
  C   0.90769973024371      6.24013885336899     -2.38986213089936
  C   0.46768060502797      7.61653571307725     -2.35323421682121
  C   1.26677698284706      8.72210594772082     -2.57417565353261
  N   -0.88884652023089      7.77855818323623     -2.06549847613942
  H   1.33202020384140     10.89366129984112     -2.68122785353477
  H   -1.09021873639073     11.17054237131565     -2.16694285570249
  H   -3.31534069156288     10.09884369872626     -1.63833565510330
  H   -3.65278303525576      5.95142424780528     -1.38699350641507
  H   1.96054674128551      6.04255682403313     -2.61018962227782
  H   2.32212958422119      8.56914949897839     -2.79695711751242
