21
Coordinates from ORCA-job ./opt_b3lyp_cdz
  O   -1.84685403282036      3.94001436990826     -0.79233511583535
  C   -0.70973874162622      3.71337930754551     -0.44154693633190
  C   -0.04250519607918      2.40275372400079     -0.28380494394434
  C   1.29378466009243      2.40147677100561      0.13913249928336
  C   2.00909804077676      1.23393550224846      0.31787393930586
  C   1.39630187401376     -0.00966453586370      0.07318641296556
  C   2.04369030716087     -1.25620181353951      0.22731519058902
  C   1.34080917883916     -2.41107355688977     -0.04209886865597
  N   0.06070803191159     -2.43938022123849     -0.44839525245371
  C   -0.57687539948678     -1.28338359880166     -0.60320880172509
  N   -1.86228845793125     -1.30156829739038     -1.01089391435580
  C   -2.46255091803253     -0.13001523219304     -1.15316158688342
  N   -1.95832055103140      1.08853573936912     -0.94382087132788
  C   -0.68893344806494      1.15660738272031     -0.53926991673140
  N   0.06140871111597     -0.03328103411846     -0.35029404485688
  H   -0.00980635811717      4.55666106858993     -0.18545058077247
  H   1.77372810210960      3.36604539938769      0.33044709219786
  H   3.04767990085114      1.23747680242845      0.64672253128105
  H   3.08239928547081     -1.27302516140116      0.55540445453287
  H   1.82159195558701     -3.38883672595717      0.07032564985012
  H   -3.50691694473935     -0.16097588981087     -1.48499693613159
