21
Coordinates from ORCA-job ./opt_b3lyp_cdz
  C   -1.43236052877747      4.58254953821518     -0.48802358959744
  C   -0.78862712417710      3.56181551356039     -0.33360190935852
  C   -0.03855416012926      2.36653882129807     -0.15028380193213
  C   -0.65353511445943      1.12753458388822     -0.01877049360498
  N   -0.01232736474059     -0.03507236708259      0.15612525699775
  C   1.31638978919393     -0.02798299429093      0.21120088225918
  N   1.97419049151126     -1.18775801194891      0.38644750805159
  C   3.30236130729602     -1.13273179065174      0.43537529877325
  N   4.08729689765017     -0.06469559155098      0.33247995062293
  C   3.46219690918635      1.11717787121984      0.15568925832840
  C   4.19828739263324      2.30928339743199      0.03476354636166
  C   3.54805855125173      3.52110686399401     -0.14679622159649
  C   2.15697699867155      3.57812232270639     -0.21234172907712
  C   1.39813370386075      2.40803695506348     -0.09524675086721
  N   2.05614307197423      1.18653305335550      0.08781764283503
  H   -2.01039703611232      5.47559347676819     -0.62478207839465
  H   -1.74595963210018      1.06979909674793     -0.05749710557593
  H   3.81463112931755     -2.09155630782038      0.57905205138482
  H   5.28143114108832      2.21747562469625      0.09187070940653
  H   4.13054143291779      4.44072811023433     -0.23946867172369
  H   1.62340214394390      4.51592183416674     -0.35412975329314
