20
Coordinates from ORCA-job ./opt_b3lyp_cdz
  C   2.64853880688808      4.62241509011919     -0.18109466092212
  N   2.05891851994835      3.59788720147090     -0.11084447638191
  C   1.37369306219749      2.39832396984113     -0.03065116941810
  C   2.08881346507393      1.19917946313621     -0.08415252577849
  C   1.40288335568158     -0.02080816967480     -0.00357927822676
  C   2.03138236890499     -1.29143886242176     -0.04779132774518
  C   1.25028947171130     -2.42059933735594      0.04090677899186
  N   -0.09130317379180     -2.41428833982516      0.16896496840335
  C   -0.71224809922561     -1.24338737989576      0.21366823039535
  N   -2.05538291248267     -1.20937680686875      0.34158908226778
  C   -2.63127970071227     -0.01550216718302      0.38175339015596
  N   -2.05556126735291      1.18624263450006      0.31178830225700
  C   -0.71773513816412      1.19303777047533      0.18393025094983
  C   -0.01262827411400      2.40734148576578      0.10165658969340
  N   0.00860547437526     -0.01350037125699      0.12948925230500
  H   3.17184081935471      1.19524746310187     -0.18759702209777
  H   3.11461287769013     -1.34139389891908     -0.15059286529175
  H   1.71335538726736     -3.41264012880119      0.00903112402771
  H   -3.72277377780795     -0.01403915223711      0.48597338227701
  H   -0.58793126544183      3.32876953602906      0.14526197413785
