20
Coordinates from ORCA-job ./opt_b3lyp_cdz
  C   2.58882126585482      4.47612919027610      0.13422954115457
  N   1.99225446478115      3.45439039656217      0.12667937490344
  C   1.29461505779846      2.25037202376385      0.12142112812709
  N   2.05168050491483      1.16210972488108      0.04024508260024
  C   1.38346750064425     -0.00944734026191      0.03501479670457
  C   2.07296377570610     -1.22981670973034     -0.04691204486613
  C   1.37637840780551     -2.43300239443328     -0.05170296209233
  C   -0.01267093865415     -2.44837465528236      0.02442922434151
  C   -0.72879859416185     -1.24396869780094      0.10719858027178
  C   -2.14434127276617     -1.15426507031000      0.18847350046732
  C   -2.72775021162670      0.08637785301468      0.26510604644498
  N   -2.04418889080084      1.25194413744495      0.26932658720422
  C   -0.72538852827691      1.20533040896721      0.19509773696042
  N   -0.02266915899828      2.35871718448274      0.19801906667672
  N   -0.02178585669903     -0.03601948304935      0.11162895868921
  H   3.15840987112770     -1.17308061500377     -0.10483208494608
  H   1.92617439031243     -3.37482464780444     -0.11590873443942
  H   -0.57736896770792     -3.38010213664773      0.02210579241196
  H   -2.73039656867772     -2.07254923378690      0.18780767206600
  H   -3.81661625057565      0.18278006471819      0.32851273731992
