20
Coordinates from ORCA-job ./opt_b3lyp_cdz
  N   -3.26044702333993      1.04864873770785     -0.16417091627420
  C   -2.09908921296474      1.07011637955770     -0.10800401753767
  C   -0.65440323501211      1.13786240663816     -0.04513829181597
  N   -0.01097964919746     -0.03990347962320      0.13833853119556
  C   1.31170622687210     -0.02369023666235      0.20165388196738
  N   1.97839480139619     -1.18058718145971      0.38355933019660
  C   3.30326261813389     -1.11704296770449      0.44089055594547
  N   4.08594213389106     -0.04251667513639      0.34122505164946
  C   3.45537105958907      1.13148863308446      0.15888474208619
  C   4.18394907311197      2.33419201354880      0.04002934147619
  C   3.52951319989838      3.53989598379058     -0.14746274816648
  C   2.13520897499892      3.58711388806951     -0.22237202841058
  C   1.38711520884571      2.41192617580957     -0.10809797599854
  C   -0.03402158432313      2.36007992370266     -0.17168082214923
  N   2.05283653679380      1.19370708194014      0.08159104449411
  H   3.82075420651002     -2.07214186118494      0.58945502945353
  H   5.26740581155450      2.25011680411983      0.10432952512886
  H   4.10727037823732      4.46258489217050     -0.23767891429280
  H   1.60056512063729      4.52488550914417     -0.36944529783691
  H   -0.59432464563289      3.28178397248717     -0.31794602111101
