20
Coordinates from ORCA-job ./opt_b3lyp_cdz
  N   2.61647981806593      4.51702950109456      0.13533012692609
  C   2.02784986999486      3.51529371744877      0.12894895290266
  C   1.29657834056029      2.25490852970000      0.12285511800056
  N   2.05130188516133      1.16101629934780      0.04137296010687
  C   1.38313683506661     -0.01163735580695      0.03552633371636
  C   2.07244874041391     -1.23145351832464     -0.04665948493271
  C   1.37576862723515     -2.43500096704601     -0.05199797829390
  C   -0.01296468237410     -2.44949364206881      0.02387677427225
  C   -0.72934167929204     -1.24465969228321      0.10693895095696
  C   -2.14549460997062     -1.15597430034791      0.18795627736593
  C   -2.72993497680320      0.08383093225094      0.26494590558509
  N   -2.04643817517718      1.24992341090060      0.26972481057016
  C   -0.72803092191285      1.20381785484506      0.19574262607173
  N   -0.02464948279284      2.35865481871560      0.19919925544613
  N   -0.02308353917586     -0.03698319603402      0.11194834277499
  H   3.15789542429829     -1.17412252780630     -0.10432483731556
  H   1.92516978015689     -3.37700772160457     -0.11640386384140
  H   -0.57810403019870     -3.38097805500814      0.02116265985717
  H   -2.73080527900189     -2.07475281623898      0.18678761633246
  H   -3.81879194425398      0.17968872826623      0.32816945349815
