27
Coordinates from ORCA-job ./opt_b3lyp_cdz
  C   3.13562490909652      3.62809571959140     -0.31303456647225
  N   2.00537152279456      3.48969081733004      0.58930784338690
  C   1.48166686053340      4.72354357620460      1.15297678230402
  C   1.46400866299144      2.27744553281864      0.88967918397649
  N   2.02411200220139      1.19270188839281      0.31252663098884
  C   1.49196700918377      0.00605099914186      0.60878783602866
  C   2.01367141066168     -1.18294671003770      0.05158674760248
  C   1.45688717152250     -2.41369640091219      0.36252283225788
  C   0.37002658835060     -2.50869600651373      1.23137558830819
  C   -0.17367116027087     -1.35055029801193      1.80298261310444
  C   -1.27451263382745     -1.33572334745386      2.69554813669654
  C   -1.71258219607742     -0.12646657677982      3.18766039488058
  N   -1.17178393462469      1.06804367180710      2.88603917055100
  C   -0.13415525564175      1.09672590878572      2.04946812129596
  N   0.41799632181096      2.26875618564244      1.73604542948304
  N   0.39354508231627     -0.10694577485115      1.48525930707524
  H   3.98205619086846      4.11240645644253      0.20706222424039
  H   3.44159998141796      2.63975494615883     -0.66859464898257
  H   2.86050151369791      4.26222564876130     -1.17549820135306
  H   2.26947307312923      5.24399734711538      1.72727007840866
  H   1.14712071003064      5.39936406831539      0.34505045548859
  H   0.63880438778491      4.49138323822577      1.81114022653784
  H   2.86158648658466     -1.07284012794066     -0.62225346823896
  H   1.87585851312130     -3.32122098126854     -0.07957381945353
  H   -0.08002287319610     -3.46750525199013      1.48667026864854
  H   -1.74532952156791     -2.27924749348095      2.96918513211225
  H   -2.56237082289311     -0.09293703549165      3.87910970112502
