27
Coordinates from ORCA-job ./opt_b3lyp_cdz
  C   -0.78133108257104      3.93438438883251     -2.05258897372186
  N   -0.79518048551614      3.67187028536021     -0.61042165379171
  C   0.29650772975492      4.35204090995723      0.07543621733135
  C   -0.97897682634787      2.30070260743096     -0.27694474283099
  C   0.02137405634709      1.44330630980008      0.12494695357514
  N   -0.15399472743837      0.13994824241102      0.44527231458441
  C   -1.36253093173086     -0.37837473064013      0.34789604127506
  N   -1.54864223123361     -1.69734469925697      0.59935256378996
  C   -2.78479099448587     -2.15943374789379      0.51440630546733
  N   -3.90475611266450     -1.49150132190170      0.21892506605327
  C   -3.75844613347755     -0.18241007932654     -0.04475983690505
  C   -4.87484402989804      0.62281750589282     -0.35394932345033
  C   -4.71830343210992      1.97542253576628     -0.60705937969997
  C   -3.45188148027389      2.56237076946857     -0.58842596838683
  C   -2.32232894465091      1.78380109538353     -0.30777019127725
  N   -2.48639658689545      0.42518500974125     -0.01783164471854
  H   -1.64527366547764      3.45513069931768     -2.53585079650219
  H   -0.84795731037774      5.02044361786379     -2.22866961642169
  H   0.14203001717269      3.55763994951889     -2.54257529334073
  H   0.24193738296770      4.15258026830482      1.15578219037658
  H   1.30608635250947      4.05902587296678     -0.28629238094505
  H   0.19428917864194      5.43778095431471     -0.08342762903839
  H   1.05052175887558      1.80380361870680      0.21179629349060
  H   -2.91116088934712     -3.23037245269177      0.71535670378146
  H   -5.84149807687291      0.12234217471195     -0.36725207985824
  H   -5.59504222360489      2.59125683325435     -0.82234370752535
  H   -3.30106031129534      3.62614338270542     -0.75322743131178
