24
Coordinates from ORCA-job ./opt_b3lyp_cdz
  C   1.66075860353080      4.57418647435872     -0.72049219240134
  C   1.56777279916952      3.83788089337475      0.60003260116818
  O   1.50102285904216      4.43339855580144      1.65825806788500
  C   1.55894768456448      2.32140015118175      0.58891612889099
  C   1.63295818092646      1.58090960141245     -0.59454975295505
  C   1.62242648456300      0.17734611527393     -0.56164942989809
  C   1.69391183595218     -0.65115132664885     -1.71181142490355
  C   1.67494830381505     -2.01669271228409     -1.54696618513946
  N   1.59229188496625     -2.64156932131218     -0.35587898601786
  C   1.52384381026835     -1.89683953015617      0.74123530510870
  N   1.44052417425886     -2.49765213572204      1.94592492423293
  C   1.37434729006431     -1.70992369078017      3.01348964838976
  N   1.37869723042352     -0.37904566748742      3.06425569391127
  C   1.46092416225752      0.25835141999903      1.88019340415244
  C   1.47377473301719      1.66152567292725      1.81218327207952
  N   1.53652887874506     -0.47075535045239      0.67554213882363
  H   0.81234585578314      4.31263701535106     -1.37442020305678
  H   1.65582792845460      5.65400871045030     -0.52715673842870
  H   2.58413505999761      4.29953085961333     -1.25695058839198
  H   1.70073923494012      2.05470118257206     -1.57206774911011
  H   1.76184464893758     -0.18596776142373     -2.69454250636724
  H   1.72894768938970     -2.67689498046939     -2.41944339922148
  H   1.30721760257816     -2.22286948718405      3.98047594201857
  H   1.41517306435354      2.21529531160432      2.74652202923143
