17
Coordinates from ORCA-job ./opt_b3lyp_cdz
  C   0.63764915500725      9.36845369628566     -3.13559812574089
  C   -0.65918579036003      9.43098741922561     -3.59380546163368
  C   -1.56310289915059      8.40917982763901     -3.20124946770454
  C   -2.92058569827255      8.29051106778603     -3.55764735132552
  N   -3.70391394137274      7.29277586696662     -3.14207139383282
  C   -3.18578440924329      6.35808244253325     -2.35101641201727
  C   -1.83773944665084      6.36928643101848     -1.92611001422962
  N   -1.33106358226643      5.40815833047278     -1.12138831281546
  N   -0.06048616758119      5.47500757374585     -0.75853858228814
  N   0.74469227589205      6.43226492200659     -1.13971711755144
  C   0.29520896276492      7.43867796968432     -1.95627750852154
  N   1.12543201749463      8.39539448139028     -2.32892305580883
  N   -1.04581542667202      7.41757948169998     -2.37258876836972
  H   1.35893355292549     10.14114898234679     -3.42022731480155
  H   -1.00870554457477     10.23358856452758     -4.24225972890622
  H   -3.36077953624744      9.05087458589535     -4.20717592499798
  H   -3.81809352169243      5.53813835677579     -2.00580545945478
