24
Coordinates from ORCA-job ./opt_b3lyp_cdz
  C   0.95840110711087      4.91793243470959     -0.13226270005333
  S   2.55716488482265      3.99382372381049     -0.05216941288791
  O   3.02865117728905      3.84147052086833     -1.49851392839151
  C   1.81326878716081      2.37472958869857      0.41939647664591
  C   1.82669871696948      1.39340872593246     -0.55724289563337
  C   1.33019174661088      0.11421450339472     -0.25607909018348
  C   1.28692759024138     -0.96265769679110     -1.17624987302538
  C   0.77441232567323     -2.17012957331750     -0.75989497420091
  N   0.30188423710469     -2.41305440960544      0.47819784047814
  C   0.32856104795328     -1.42761731876004      1.36696746263289
  N   -0.13750936710914     -1.64935857017177      2.61361520964983
  C   -0.08859216626471     -0.63522324914125      3.46856939409287
  N   0.36495230369281      0.60095965053709      3.26438495705577
  C   0.83738414774146      0.86127173086324      2.03024690521622
  C   1.34350724646713      2.13249158455376      1.70487405554083
  N   0.83900988291457     -0.13675130665694      1.03274514348656
  H   0.46713790764474      4.91412338526906      0.85182305226539
  H   1.22091991247616      5.94243707372768     -0.43211717105325
  H   0.33527971438332      4.43962467323699     -0.90108621900762
  H   2.22632810858313      1.61699935555356     -1.54738045014868
  H   1.66100230065711     -0.80545336140690     -2.18702681927306
  H   0.73018770056224     -3.01736176339187     -1.45279341472760
  H   -0.47204820440535     -0.84084404474400      4.47526607293098
  H   1.34529889172020      2.87473434283127      2.50245037859065
