24
Coordinates from ORCA-job ./opt_b3lyp_cdz
  C   1.27081300533534      4.83397281919844     -0.01840207374892
  S   1.84346051233817      3.38580564494499      0.98400147744790
  O   3.16377873292059      3.78406034616384      1.62181223211286
  C   2.18262204811966      2.31486539077669     -0.50832277760632
  N   1.09358684000041      1.99614594919561     -1.20417396577474
  C   1.28822092914326      1.15092573910521     -2.23547213691385
  C   0.22036965074987      0.73870781728316     -3.05268988710432
  C   0.43792096857873     -0.13574452320444     -4.10922560621690
  C   1.71598191672101     -0.61854348608072     -4.37890159477849
  C   2.80090039757215     -0.22501049621537     -3.58201879517760
  C   4.13955866542733     -0.66073397344846     -3.77834933568323
  C   5.11881051394485     -0.20260989103597     -2.93302560920582
  N   4.90181981285451      0.64769299667521     -1.90457932096317
  C   3.66997842159024      1.07116479318210     -1.68960811594100
  N   3.42542964125893      1.92001008645159     -0.66282901451812
  N   2.57747202711102      0.65652726461484     -2.51675016412751
  H   0.92839830055215      5.58628832818533      0.70581780090732
  H   2.14333441569397      5.20809412510685     -0.57326763736823
  H   0.45612282956816      4.51853784042570     -0.68408382839490
  H   -0.76238345455122      1.13744407349418     -2.80724197425422
  H   -0.40214363586150     -0.44769889830245     -4.73423954895638
  H   1.90849428602331     -1.30438906624768     -5.20323950217348
  H   4.35361176333609     -1.34708619870093     -4.59691885479273
  H   6.15791141157288     -0.52203668156721     -3.06440176676785
