24
Coordinates from ORCA-job ./opt_b3lyp_cdz
  C   -2.19792593203092      3.24216308779284     -1.07459701072952
  S   -0.86369834808131      4.21125167993721     -0.23940300209797
  O   0.07622530664175      4.65607290284998     -1.36330571425978
  C   -0.01447002579907      2.79707120215782      0.56244406090112
  C   1.15344350953592      2.34163113384508     -0.04597450962947
  C   1.87977433453473      1.31183525571192      0.52646235719720
  C   1.45627762969177      0.72101061892343      1.73364986860443
  N   2.15029612431092     -0.29043703886309      2.28705482431088
  C   1.67001278684220     -0.77737532427764      3.42968247051519
  N   0.59325299557828     -0.38896031710788      4.10305478563711
  C   -0.12479174963903      0.62667495420664      3.58537419987328
  N   -1.20206607342853      1.05577528181606      4.23365942080776
  C   -1.89997072417468      2.07535864946349      3.70174781293023
  C   -1.59169948908877      2.70054775339068      2.51421075433231
  C   -0.45254583215557      2.26607769013346      1.78728737904277
  N   0.29029970825087      1.21732299663870      2.35246032587392
  H   -2.81054888647744      2.71157806947617     -0.33017702235206
  H   -2.80622961055790      3.97211871211111     -1.62811601288437
  H   -1.70991552978678      2.54360985758489     -1.76903571528238
  H   1.46513348132520      2.83455871562144     -0.97156862052926
  H   2.79430401197060      0.91641257749060      0.08746481883949
  H   2.23689631726216     -1.60544947152549      3.87160149369348
  H   -2.76910061713574      2.40269206373942      4.28266499504974
  H   -2.18095338758868      3.53564894888307      2.13910804015602
