24
Coordinates from ORCA-job ./opt_b3lyp_cdz
  C   -2.38794166490304      3.49196231987640     -0.29472806812085
  S   -0.69281573788324      4.22121228903870     -0.31254518666568
  O   -0.38811011745119      4.61151484410195      1.13976101393204
  C   0.24094527533500      2.66363369401040     -0.56382696783370
  C   1.03276144028030      2.21599739924311      0.48498031078226
  C   1.84498129033319      1.10092017054585      0.31515423394572
  C   1.88636003391919      0.43504584269335     -0.92091709256069
  C   2.69075340337545     -0.70243708061468     -1.19721961964924
  C   2.64247964045559     -1.26382158263269     -2.44981659101542
  N   1.87502447962219     -0.80595352786683     -3.46360765178052
  C   1.11611793128924      0.25471950594648     -3.24517302566399
  N   0.34268758159906      0.73720916963612     -4.24600643783077
  C   -0.41295263348377      1.78974898331781     -3.97845310027215
  N   -0.51896771895302      2.46403378648281     -2.82879573721942
  C   0.25237045959367      2.02577015795990     -1.81628746570673
  N   1.09123733978780      0.90678985539955     -1.97410890564369
  H   -2.43167678406345      2.76927748258569      0.53214599537382
  H   -3.07325855991293      4.33130173984441     -0.10850299179032
  H   -2.58501759628862      3.02894811883289     -1.27132530958524
  H   0.98632985617017      2.77847956550624      1.42251789792177
  H   2.47290793177047      0.72254278054668      1.12162406868963
  H   3.32545310316025     -1.10143199018365     -0.40676630795091
  H   3.25140655059381     -2.14315381984596     -2.68454491272751
  H   -1.03481550434599      2.15710029557539     -4.80347814862755
