21
Coordinates from ORCA-job ./opt_b3lyp_cdz
  O   -2.75714888591490      1.30877816824929      0.20782960290403
  N   -1.94711923638734      1.53422416383371     -0.66833910503487
  O   -2.14293623753487      2.18560244271385     -1.68991745809484
  C   -0.55948988144945      0.96396919806680     -0.49826062265518
  N   -0.37248630879502      0.26199071747793      0.61666921303157
  C   0.82881770239304     -0.26270905709747      0.81797705504573
  N   1.06516398694634     -0.98029862957472      1.93032808365923
  C   2.28661123425368     -1.48271516468488      2.08127812980220
  N   3.33255791323768     -1.37141146792105      1.26478393572283
  C   3.13221219781407     -0.65918886793817      0.13993888609244
  C   4.17116385215911     -0.47699363048813     -0.79648094702425
  C   3.95896265490099      0.25679253154684     -1.95180320087260
  C   2.71147579305018      0.82967222741047     -2.21014335407863
  C   1.66302034704291      0.66603117154578     -1.30058739675706
  C   0.35902728892656      1.21227317862598     -1.47887453255829
  N   1.88194502048101     -0.07739680363324     -0.13232009809245
  H   2.45345791186205     -2.06348883119823      2.99599640186820
  H   5.12582744570915     -0.94079606744405     -0.55446322438375
  H   4.77333642754506      0.38927116790371     -2.66767028395061
  H   2.52211355326962      1.41058457423781     -3.11202853269602
  H   0.11865722049011      1.79908897836775     -2.36093255192770
