21
Coordinates from ORCA-job ./opt_b3lyp_cdz
  O   -1.00151704433027      4.01756705789610     -0.95533803489251
  N   -0.39528716680578      3.74058240014360      0.07891991694644
  O   0.01861512723515      4.58929247777152      0.87398346285451
  C   -0.16373414548784      2.33653289770026      0.36251433143115
  C   -0.64622769260031      1.41452476424158     -0.55898715896108
  N   -0.51971730993833      0.09646741615205     -0.45183821397577
  C   0.11770048981582     -0.39417478528267      0.61829252837703
  N   0.24838087121901     -1.71739776788625      0.73157103226538
  C   0.88777978898407     -2.18386235729358      1.80803031556630
  N   1.41959399626726     -1.48645666191858      2.79769129819820
  C   1.30569231500516     -0.14234536353985      2.71495476429127
  C   1.84361603013712      0.67033147273624      3.72473511952618
  C   1.72716045671255      2.04609172119963      3.64009732779720
  C   1.07913410729486      2.64768035108804      2.56006225369540
  C   0.53039929712948      1.86923734437684      1.53439531115328
  N   0.65164918611469      0.46637231636492      1.62512271170097
  H   -1.16928939747135      1.79448242957636     -1.43917601480688
  H   0.98035643722207     -3.27382126550509      1.87508543810130
  H   2.33994999730427      0.15871560207128      4.54745253572520
  H   2.14600447550565      2.67819616587177      4.42631356854608
  H   0.97946018068675      3.72323378423584      2.47883750646033
