21
Coordinates from ORCA-job ./opt_b3lyp_cdz
  O   -1.24665199459153      4.01318534631910      0.24585261705474
  N   -0.92945870005125      3.39335520305415     -0.77258921043975
  O   -1.40127375744632      3.58385581177934     -1.88269778185918
  C   0.12641025804515      2.38990863379467     -0.61047158357284
  C   0.98260859568766      2.53883460220299      0.48352214589929
  C   2.03851987581595      1.67406661987905      0.67634080824670
  C   2.26136243557924      0.61336921956599     -0.22506343285964
  C   3.33171002997812     -0.30010513137422     -0.11860069958113
  C   3.44817727840977     -1.30330560155112     -1.05858996654130
  N   2.59567546207554     -1.48219813127139     -2.07918312042286
  C   1.57478961807617     -0.64018757165046     -2.20776179556538
  N   0.70736269190199     -0.82351985960492     -3.22203574859803
  C   -0.31083625065078      0.01971109954897     -3.29990291570355
  N   -0.57750923010043      1.06697711356742     -2.51731108166261
  C   0.27542011696542      1.30935856496058     -1.52072105249124
  N   1.37733146192064      0.44157907279377     -1.29672352379452
  H   0.78675081128901      3.36323200976799      1.16874778230100
  H   2.72496534683459      1.79003688462071      1.51388224562426
  H   4.04018836112795     -0.18808037745972      0.70119567867483
  H   4.27338068663909     -2.02119144153362     -1.00136908941285
  H   -1.02677309750602     -0.16112206740880     -4.10985027529603
