22
Coordinates from ORCA-job ./opt_b3lyp_cdz
  F   1.18022275217231      4.47347550516157     -0.49699084983530
  C   2.08867989441761      3.79804212057287      0.24043582103296
  F   3.24957606050931      3.81309557178772     -0.44928827172445
  F   2.27912975965825      4.49372412483030      1.37826662491144
  C   1.61835583909304      2.38501844175513      0.51003329922555
  C   1.86568887314022      1.39394469039240     -0.43734008896151
  C   1.38971891610972      0.09097905286113     -0.22860823215838
  C   1.58443691900144     -0.98624668628831     -1.13093025181330
  C   1.06811989241729     -2.22020574268694     -0.81142165023187
  N   0.37875798497870     -2.49164919787984      0.31528854402629
  C   0.17941933628116     -1.50856075794534      1.18199076658992
  N   -0.50617898558359     -1.75492376124600      2.31910477179588
  C   -0.67771939529333     -0.74132079389645      3.15628326246966
  N   -0.25842646789508      0.51945094664490      3.02968928476683
  C   0.42623829671565      0.80307942342274      1.90878345165835
  C   0.91617298924429      2.10290311574686      1.67291966599548
  N   0.67410493317516     -0.19037578065055      0.94206177982486
  H   2.42817412260211      1.60230266453891     -1.34530038968836
  H   2.13623616675568     -0.80831433328061     -2.05309429993225
  H   1.20455670255281     -3.06698348860786     -1.49251058670817
  H   -1.23655735808765     -0.96664604459268      4.07238937157386
  H   0.71635276803482      2.84969092936015      2.43748797718249
