21
Coordinates from ORCA-job ./opt_b3lyp_cdz
  C   6.96883483717265     -3.52672795815398      0.05377049854346
  C   6.58421961940113     -2.07069660545892      0.03892739090966
  C   7.55434134196085     -1.07073724409938      0.12939394525472
  C   7.20533910069587      0.28653698920350      0.12229110562806
  N   8.14167979576833      1.26172345813129      0.20987945604932
  C   7.68607586047163      2.50629902629465      0.19260508721509
  N   6.42025154910612      2.93262060579211      0.09983034768330
  C   5.47501377775069      1.99015050664092      0.01192058966010
  N   4.18555312372738      2.32263724170260     -0.08428024289057
  C   3.30930981087063      1.31026746286519     -0.16820029790576
  N   3.54678754569142      0.00877231842911     -0.16892318651832
  C   4.84975510367103     -0.35936560062039     -0.07193379835758
  C   5.23662589754639     -1.70165756544879     -0.06169783621593
  N   5.84894779290114      0.62206197678649      0.02115506929178
  H   8.05906117140014     -3.66107942711335      0.08150552068250
  H   6.57509704088126     -4.04202340125044     -0.83768796768786
  H   6.53478552955180     -4.03072549564354      0.93365886119947
  H   8.61715947698474     -1.29597215020218      0.20874460361693
  H   8.44470052377303      3.29487410096791      0.26367042323454
  H   2.25623956808157      1.60577562154746     -0.24646156749437
  H   4.43593153259218     -2.43696386037025     -0.13609800189856
