20
Coordinates from ORCA-job ./opt_b3lyp_cdz
  N   6.79186291855097     -3.37080425091818      0.01756207873816
  C   6.46853998871859     -2.04718798963246     -0.04281663358057
  C   7.47458395449493     -1.06176588947418      0.00516267739091
  C   7.15341935937124      0.29122999611819     -0.01907857732212
  N   8.11603194166952      1.24910042657940      0.02615143582716
  C   7.68990809582167      2.50146660900994     -0.00369430061236
  N   6.43229530050676      2.96181298609679     -0.07364050570938
  C   5.46397982147843      2.04206623456622     -0.12050841747616
  N   4.18026594469651      2.40630024578390     -0.19253055181944
  C   3.27970387800262      1.41361249765110     -0.23671825498353
  N   3.48248343649860      0.10614446693482     -0.21870695887175
  C   4.77867581127723     -0.29455427895543     -0.14450187555729
  C   5.12104645286537     -1.64232853334020     -0.11905162100989
  N   5.80173042424869      0.66702942665386     -0.09384253108291
  H   7.75460403617273     -3.65105133306530     -0.11615234560882
  H   6.08761707005441     -4.06226198778953     -0.20426450489445
  H   8.53280234566440     -1.31364336096331      0.06584129602654
  H   8.46969553880157      3.27190031933041      0.03369414905150
  H   2.23217106743543      1.73330530223742     -0.29592050187438
  H   4.30021261367021     -2.35765088682348     -0.15751405663124
