19
Coordinates from ORCA-job ./opt_b3lyp_cdz
  O   4.58456677782616     -1.04768501653684    -11.07195496502163
  C   3.28668284763173     -1.41277983971722    -10.89686296095884
  C   2.52650565327682     -2.10381388642153    -11.83168887181080
  C   1.19533074134077     -2.44316474735482    -11.57616399527443
  C   0.59421070594660     -2.09404406686918    -10.36899341241646
  N   -0.70137495654347     -2.40929621560164    -10.08804289011267
  C   -1.14824290773481     -2.02112647157974     -8.91158757729059
  N   -0.49099496389903     -1.35087087543247     -7.94511668030274
  C   0.77561001372310     -1.02948634558675     -8.19071865009224
  N   1.50255962997161     -0.36195767934342     -7.28162469351543
  C   2.76630848893842     -0.07853365288852     -7.60797057308906
  N   3.41708749241095     -0.37034266200664     -8.72784777420835
  C   2.70422924957886     -1.04195413195372     -9.65605728788889
  N   1.37232401880883     -1.39538679828540     -9.43086112014811
  H   4.87457912450606     -1.34940013350345    -11.94573949898917
  H   2.98021492036713     -2.38714473851573    -12.78631124936472
  H   0.58553380154224     -2.98415658713399    -12.29720383603947
  H   -2.19029432368951     -2.27281306336055     -8.68187233715241
  H   3.34017368599749      0.46715691209168     -6.84957162632416
