18
Coordinates from ORCA-job ./opt_b3lyp_cdz
  F   6.51441810333597     -3.41590954508094      0.01150994839761
  C   6.24866627961337     -2.10558176066462     -0.00916270638616
  C   7.31022656633309     -1.21215755100937      0.03804647511129
  C   7.04291868863509      0.16146189632198      0.01705683110939
  N   8.03930369744629      1.07529148197919      0.06091645963268
  C   7.66475562640057      2.34669255618400      0.03522600347933
  N   6.42653601520686      2.85129664487293     -0.02857910757919
  C   5.42160041411622      1.97164897815127     -0.07308660838024
  N   4.15368971436109      2.38855616749924     -0.13795817538220
  C   3.21028952888209      1.43976728634428     -0.17903478107532
  N   3.36075120355525      0.12275007851518     -0.16414558439980
  C   4.63413004015213     -0.32898957411665     -0.09885484087663
  C   4.92322214983897     -1.69815482753103     -0.07684677857367
  N   5.70361010406869      0.58137513336080     -0.05132739831292
  H   8.34564572844050     -1.54066133743361      0.09092061405582
  H   8.47444978229212      3.08492136442130      0.07096567336735
  H   2.17721689435451      1.80284584621592     -0.23191779722437
  H   4.09791946296704     -2.40550283802986     -0.11345822696303
