18
Coordinates from ORCA-job ./opt_b3lyp_cdz
  C   0.93190949488612      8.81008437596497      3.41528053418360
  C   -0.33523848869157      8.99168336905358      3.99092202360063
  C   -1.33099336229824      8.06098349794421      3.69262452283388
  C   -2.67864166190661      8.05426423318288      4.16508920318537
  N   -3.57012323750623      7.13729121465875      3.83961332629543
  N   -3.24621796203754      6.13424690618921      3.02356704041388
  C   -1.99163661220604      6.06928150471265      2.53383166052680
  C   -1.60627240586829      5.01627073294228      1.66095244974994
  N   -0.39330451789127      4.89654356382502      1.14762785115242
  C   0.53291011227512      5.81355603310399      1.46088579600517
  C   0.29124156720141      6.90426140976216      2.30926367224023
  N   1.25582001663674      7.81479506416084      2.60447888353077
  N   -1.00581553988628      7.01106533061114      2.84328476457574
  H   1.73215634661862      9.52678477468437      3.63313289556704
  H   -0.55598678869575      9.82715567263371      4.65341170457554
  H   -3.00704875138823      8.84968986083160      4.83754173827758
  H   -2.37005808395410      4.27608591010033      1.41384756392478
  H   1.53441987471216      5.71738654563819      1.03893436936119
