18
Coordinates from ORCA-job ./opt_b3lyp_cdz
  F   4.90037681053870     -3.50574119375081     10.15965210218040
  C   3.58121578873046     -3.71981501127837     10.05336982526687
  C   2.91325022454713     -4.48810082974281     10.98982855898280
  C   1.54073274592709     -4.70364014117682     10.86852164193871
  C   0.82657543178301     -4.14745070114439      9.80237193910066
  N   -0.50958004186403     -4.33868477740292      9.65627444556550
  C   -1.06748684037340     -3.76040793175415      8.60758656858522
  N   -0.48577884164129     -3.00445470540213      7.66158833806596
  C   0.82536305785394     -2.79853442409808      7.77747962726383
  N   1.48615938738260     -2.05707133949530      6.87871373610957
  C   2.80011702013517     -1.90053617309292      7.06979915008717
  N   3.55772945825354     -2.38682342727541      8.04536701069416
  C   2.91040316728012     -3.13671674131189      8.96093459364775
  N   1.53384067590052     -3.37263405520757      8.86879322662798
  H   3.48131605722819     -4.91707371399078     11.81756859992395
  H   0.97885880863618     -5.30140767428720     11.58347297045068
  H   -2.14635019483778     -3.91442848903936      8.48915180257243
  H   3.31798728451980     -1.28980867054906      6.32113586293630
