19
Coordinates from ORCA-job ./opt_b3lyp_cdz
  S   7.11036146583872     -3.77309890691563     -0.01755418435181
  C   6.81144207167530     -2.02678815068265     -0.03291118487464
  C   7.84361937488258     -1.08423215322252      0.03791503138497
  C   7.55672369975658      0.28436137624079      0.02242785001507
  N   8.54183345737258      1.21189532640628      0.09016040645000
  C   8.14965156928364      2.47771407414177      0.06741413993468
  N   6.90585881765216      2.96738834187769     -0.01386789229205
  C   5.91394878390054      2.07364744201330     -0.08198674866799
  N   4.64122433039357      2.47059283584353     -0.16541639594995
  C   3.71461236856635      1.50436166095727     -0.22938315019492
  N   3.88593867041972      0.19106068729156     -0.22148855314622
  C   5.16778535289820     -0.24096636539533     -0.13753688824226
  C   5.47919554192786     -1.60265564110966     -0.12034997657353
  N   6.21681277134711      0.68899467025521     -0.06546192506461
  H   8.46292779052309     -3.70017011404715      0.07350886505546
  H   8.89530264162692     -1.35660434659843      0.10688524271543
  H   8.94839145792449      3.22687071685765      0.12229380584165
  H   2.67671573920718      1.85121501135295     -0.29740806853146
  H   4.64239409480335     -2.29683646526663     -0.17760037350782
