19
Coordinates from ORCA-job ./opt_b3lyp_cdz
  S   6.98254813392388     -3.81891113258743     -0.02306443856149
  C   6.70103667028741     -2.07068906548208      0.00739946947629
  N   7.77776689349749     -1.27793210420526      0.12167001801648
  C   7.55473424648518      0.03733575047076      0.14370189215349
  N   8.57231269517767      0.89514097731547      0.25488646777577
  C   8.26093081080461      2.19868289991482      0.26913754567233
  N   7.06600471320207      2.76293369344374      0.18701273152654
  C   6.01433379692732      1.91702079573807      0.07328760450135
  C   4.69826833617376      2.38588491463025     -0.02195187448927
  C   3.64173862169178      1.48507399987942     -0.13768368698776
  C   3.86583011529536      0.11240600035956     -0.16128637737527
  C   5.17225992531818     -0.39198801401673     -0.06799776831075
  N   5.42463906566927     -1.71664255585213     -0.08787239184919
  N   6.22660327001834      0.52856260348463      0.04820338675250
  H   8.33022411308423     -3.70106410671155      0.09201313197061
  H   9.11105574448483      2.88489353233570      0.36112146624213
  H   4.55764036243542      3.46503248772233     -0.00041008005884
  H   2.61917597044075      1.86285626760175     -0.21119228583428
  H   3.06261651508235     -0.61690694404129     -0.25064481062063
