18
Coordinates from ORCA-job ./opt_b3lyp_cdz
  Cl  5.89996409116440     -7.85932197588126      7.63508581063974
  C   4.17661369259755     -8.00673091075116      7.42372073317407
  C   3.49619586603167     -9.11433427869011      7.92159503205370
  C   2.12169550513571     -9.23932383176330      7.75700696340340
  C   1.39419784460379     -8.24950612663889      7.08486402254614
  N   0.05469214865380     -8.34583899724005      6.91031086964008
  C   -0.52058486884964     -7.34765355309287      6.25939941212799
  N   0.05169647885413     -6.24888428633079      5.74798312606032
  C   1.37100757938902     -6.12643777728871      5.90467181188455
  N   2.01640240485453     -5.05829030975408      5.42275373893620
  C   3.33706426485315     -5.01345851560558      5.62271709050310
  N   4.10857659906819     -5.89639822281786      6.24313563667731
  C   3.48484143739882     -6.98361106192580      6.73926580584631
  N   2.09716078448367     -7.13972799863086      6.58964183573872
  H   4.05990696087789     -9.88763056618689      8.44588417059189
  H   1.56398497796973    -10.09386584314331      8.13553922945901
  H   -1.60481218989802     -7.42540150555095      6.11792217250804
  H   3.84812642281160     -4.13090423870755      5.22079253820947
