18
Coordinates from ORCA-job ./opt_b3lyp_cdz
  Br  5.47292280763864      6.08029784388382      9.05340407244184
  C   3.61015298503894      5.71404483961614      8.98635076028109
  C   2.81542994447139      5.89824170078775     10.11522188204303
  C   1.45162601386269      5.63336294056031     10.07726634744216
  C   0.84964319730721      5.17469966866859      8.89878624145884
  N   -0.47640405560188      4.90921227635649      8.83516917049664
  C   -0.92904593778694      4.48142158381381      7.66731411076923
  N   -0.24314980990066      4.27604527041793      6.53483068893966
  C   1.06671357697006      4.52944935970704      6.56747696278488
  N   1.82012749985123      4.34901001169432      5.47711822833790
  C   3.12222771985771      4.62592880047978      5.59512451223402
  N   3.77987065312955      5.06177168852903      6.66120986688209
  C   3.04738974118659      5.25359214892447      7.77682100396407
  N   1.66574820183591      4.99475438796228      7.77072925014078
  H   3.27685505050962      6.25528324032291     11.03718871637997
  H   0.80657579727387      5.76815321077533     10.94358840645058
  H   -2.00270040750996      4.26644827113088      7.61559027429801
  H   3.72404702186598      4.47237275636911      4.69186950465524
