23
Coordinates from ORCA-job ./opt_b3lyp_cdz
  C   3.05322158544076      1.80352400841304     -7.99052820072434
  N   2.86364135515908      1.70151883357889     -6.55736210869985
  C   3.64298089343825      0.96484993386239     -5.72288087988420
  C   4.72864739656297      0.20444693441412     -6.20483152957741
  C   5.51666062781782     -0.54749624051317     -5.33657818249670
  N   6.56344972089161     -1.28191988319214     -5.79425018828868
  C   7.24240111222981     -1.95686256805110     -4.87931975554284
  N   7.04086353217941     -2.01781270095192     -3.55608427229007
  C   6.01617561118714     -1.30378441018968     -3.07668592121885
  N   5.73838717120568     -1.30262934020482     -1.77097494001570
  C   4.69134764338557     -0.55576358683135     -1.38429129981753
  N   3.88494122320254      0.18870183667599     -2.12032600943428
  C   4.14327407123470      0.20738092598371     -3.45658524620771
  C   3.36875312156635      0.95036547968551     -4.33525545948014
  N   5.21941573760164     -0.54213368741363     -3.96527043563810
  H   2.27598528560400      2.45995888982415     -8.40419367253356
  H   2.96956663168435      0.81952424802150     -8.48426113393317
  H   4.03828853511351      2.23306484768733     -8.24538909911671
  H   2.11197030706062      2.23208936298749     -6.13856095859287
  H   5.00342424424180      0.16506029169437     -7.25581328348077
  H   8.08697894080811     -2.54876149402665     -5.25289276785035
  H   4.48006897431088     -0.56852593183994     -0.30801031198956
  H   2.54437627807335      1.51683425038579     -3.90252434318673
