22
Coordinates from ORCA-job ./opt_b3lyp_cdz
  C   2.10634280989734     -2.16583295620508      6.60431362842104
  C   3.19579465444816     -1.40205554028624      6.77171006944364
  C   3.88456640622876     -0.62437423858613      5.72770312420958
  C   5.01507868656185      0.12095480550910      6.08577109740988
  C   5.71902685774549      0.88326638967025      5.14544323524809
  N   6.81206031203782      1.60435184244488      5.48977939328169
  C   7.39032845689810      2.28410019522257      4.50850953929526
  N   7.03849574220581      2.35402827726871      3.21935582135216
  C   5.96075240609864      1.65021360439224      2.85175804316704
  N   5.53684127041199      1.66065224634081      1.58659744351133
  C   4.44800981553755      0.92486593630014      1.31250379474095
  N   3.72576579605695      0.17993941671196      2.13225947440102
  C   4.13347128943774      0.14962657288565      3.42762676553936
  C   3.45620821480013     -0.59864985748771      4.39016467047416
  N   5.26347077278501      0.88555355225512      3.82066140894369
  H   1.66974054394504     -2.70524617955964      7.44747692866365
  H   1.61198371808810     -2.28390274281131      5.63701621166522
  H   3.64104099467649     -1.32804021489751      7.76906819121993
  H   5.39532016516653      0.14087398714590      7.10643629166063
  H   8.27549858042067      2.86769191380584      4.78813620134717
  H   4.11695885897940      0.94765948881082      0.26743186639533
  H   2.58804364757250     -1.15086649893049      4.03681679960933
