22
Coordinates from ORCA-job ./opt_b3lyp_cdz
  C   15.06056022826126      1.77133324467082      3.15192854753618
  C   14.86526799006679      0.87929187580977      4.13892416955897
  C   13.62242533465260      0.31188275389613      4.67740865278733
  C   13.71664111025946     -0.61621405302379      5.72838956677475
  C   12.61105280045759     -1.21386197136547      6.31186418289347
  C   11.32461413967823     -0.90329348427704      5.85978905120566
  N   10.22200988141427     -1.46931285246337      6.40798852451730
  C   9.06152515898486     -1.09701422793834      5.89672232875001
  N   8.83512120526903     -0.22757843290794      4.90111049787907
  C   9.90380102799070      0.34319757006336      4.34464856485990
  N   9.75048447176886      1.22163271383488      3.34448516507604
  C   10.86657952023201      1.74903212876824      2.84082753550937
  N   12.12248273415888      1.51809043273535      3.20117441261992
  C   12.32092656740805      0.63787893212076      4.20675787767767
  N   11.20757853337882      0.02172631550156      4.81042514057087
  H   16.08098732508964      2.06943255490994      2.89835120514071
  H   14.23477857657701      2.20815275778164      2.59510047788635
  H   15.75350047067228      0.48804590960734      4.64961842551486
  H   14.71294909990111     -0.87339252284091      6.09727542676068
  H   12.68913506893355     -1.93232289313579      7.12590365013510
  H   8.16841225192161     -1.55370860179091      6.33886988182367
  H   10.72687650292212      2.46609185004274      2.02327671452203
