20
Coordinates from ORCA-job ./opt_b3lyp_cdz
  O   1.95329928385147     -5.77362701374481      2.85088656109108
  C   2.71385155493611     -5.41068604644930      3.71262162219346
  C   3.43281039875183     -4.07481559434791      3.69677656819299
  N   4.23251936608891     -3.87646101522515      4.75573472725955
  C   4.89817578981519     -2.71687492148768      4.80538676661209
  N   5.71345397357111     -2.44187522183080      5.82410931804873
  C   6.33936445446308     -1.25524168718504      5.79001627381589
  N   6.25660124192210     -0.30787735339520      4.87060472983931
  C   5.43380194303880     -0.56239145299306      3.82333470938178
  C   5.25875830855891      0.36068143253795      2.78287740060152
  C   4.40636807665950      0.06795577164535      1.72217418431726
  C   3.71347945166092     -1.13884228624790      1.67056167595567
  C   3.86554623254468     -2.08361294819480      2.69396375425405
  N   3.20717286341778     -3.26498946944535      2.67381933419354
  N   4.73001895134993     -1.77387022919350      3.75896845652347
  H   2.96728520335535     -6.02192630067833      4.61226206680355
  H   7.00468203661911     -1.04873608245554      6.63639157196896
  H   5.81558032965257      1.29326652162836      2.85551201139893
  H   4.27881845755519      0.79593531267223      0.91768382710351
  H   3.03912208218742     -1.40142141560951      0.85732444044461
