17
Coordinates from ORCA-job ./opt_b3lyp_cdz
  C   1.34747806477034     -2.85654964084729      9.47379698311159
  C   0.03675506823644     -3.35604778854139      9.64720287258557
  C   -0.89284686571447     -3.05213578364634      8.67016069872367
  C   -2.27927594684648     -3.44297957883295      8.62350352399191
  N   -3.10404340200003     -3.11827774331985      7.66437838653130
  N   -2.67308854231312     -2.36276513018781      6.61926249337386
  C   -1.40863372897779     -1.96969795057192      6.60070026460673
  C   -0.87694211252933     -1.17048068126640      5.53333409282899
  N   0.36399293021529     -0.76163037486599      5.47646417727534
  N   1.24697601143660     -1.07903136690287      6.45264060608077
  C   0.85038732205583     -1.81432604982862      7.48130567394752
  N   1.75077488966127     -2.12558059320957      8.45574907128020
  N   -0.48281619716817     -2.28240806098338      7.59073873354871
  H   2.10978718936347     -3.07891853177024     10.23008005823450
  H   -0.24558476718442     -3.95749815728799     10.50988385002507
  H   -2.67904787597434     -4.05175881938503      9.43911282768275
  H   -1.55338203703106     -0.89015374855232      4.72325568617144
