19
Coordinates from ORCA-job ./opt_b3lyp_cdz
  C   7.90406620726420     -4.58700308737465     -0.07927676620209
  N   7.71207757704580     -3.41926942413128     -0.05068878182953
  C   7.48885943024132     -2.04879812664608     -0.01998627047918
  N   8.58352790547877     -1.30176544935980      0.14785931346254
  C   8.39419288271232      0.02199990536469      0.18027684325756
  N   9.42615071599518      0.84820873079321      0.34356685138748
  C   9.15015769251723      2.16115569735743      0.36459892619104
  N   7.97425190623213      2.75570407802365      0.24336708279051
  C   6.90702583979384      1.93908296708260      0.07618198641589
  C   5.60634725996956      2.44428455594566     -0.06427603503026
  C   4.53312999952868      1.57609210534185     -0.23433249754929
  C   4.72349600718006      0.19577586457097     -0.26888994299385
  C   6.00914547123472     -0.33912068873572     -0.13160072651778
  N   6.22886060750855     -1.67544408474079     -0.16080462644822
  N   7.08338261562323      0.54775741907180      0.03943577112178
  H   10.01374377825687      2.82230719154133      0.49993352829847
  H   5.49393131760470      3.52656781380277     -0.03255771165800
  H   3.52457748288296      1.98151324131338     -0.34260725962472
  H   3.90626530292985     -0.51118870922097     -0.40035968459237
