19
Coordinates from ORCA-job ./opt_b3lyp_cdz
  N   7.10942055493734     11.63009089712919      1.27987563853844
  C   6.00762792177410     11.30607462479512      1.47321735544933
  C   4.64381937291229     10.97221811235420      1.74092163222143
  C   3.79564744819621     11.87233855077457      2.40997944725440
  C   2.47549379677968     11.55436705626181      2.67133844510957
  C   1.94829982436819     10.31336955002612      2.27023149362816
  N   0.66649101756389      9.97741429174020      2.51157942768515
  C   0.28347370446213      8.77837846607729      2.08524184274919
  N   1.00820414893383      7.85718809190041      1.44461833799386
  C   2.28507319407577      8.16294408854266      1.19104041288865
  N   3.07626883012769      7.29499795680915      0.55413319854958
  C   4.33878866962228      7.67802398259500      0.34006179760720
  N   4.91852097231475      8.82286589228478      0.68142859495647
  C   4.14432999200162      9.71493357206129      1.32402468615505
  N   2.80160571553026      9.41932813122856      1.60242666306363
  H   4.19894030406006     12.83674249570756      2.72364898714703
  H   1.79838476446130     12.23258489660482      3.18707865916967
  H   -0.76017428517292      8.50909902078711      2.28365885976866
  H   4.97487405305125      6.95545032232058     -0.18324547993482
