18
Coordinates from ORCA-job ./opt_b3lyp_cdz
  C   0.93237950104869      8.90091901367141      3.08516876544564
  C   -0.34938488247731      9.16795560259150      3.54867056012692
  C   -1.34849620550841      8.20438181616734      3.32438666506602
  C   -2.70425206349317      8.29091433506426      3.71669572052008
  N   -3.59772227346007      7.34207189412431      3.47249289706369
  N   -3.26065671238391      6.23521418191322      2.83263178074723
  C   -1.98216662234994      6.05582462652968      2.41390695782508
  N   -1.68680874825514      4.92294248507972      1.77192432513870
  C   -0.42633201764224      4.74688362186345      1.35942559622024
  C   0.60579907239300      5.65336929991529      1.54654160861924
  C   0.33701291595042      6.86010358252428      2.21865929617810
  N   1.28676091020273      7.78676133171943      2.43715681998813
  N   -0.99178482937968      7.04286221484671      2.65210619797385
  H   1.73422179133886      9.63064153062007      3.24335679988691
  H   -0.59956860980193     10.08890825105772      4.07329355409853
  H   -3.05331556174288      9.17751788236137      4.24963884652944
  H   -0.23129037560972      3.80324070734116      0.83781796843774
  H   1.62177471117074      5.47937762260907      1.19804564013445
