23
Coordinates from ORCA-job ./opt_b3lyp_cdz
  C   3.41675163002972      4.60906558709317     -6.82129233482879
  C   3.00238264289108      4.08604189888991     -5.46723311990394
  O   2.06815942811064      4.52800118935302     -4.83513437796092
  C   3.83195294011316      2.93083333553450     -4.88984122213487
  N   4.84812155134519      2.49664113934594     -5.65385133126959
  C   5.58850695627436      1.49053256923529     -5.17859244785601
  N   6.61336107405914      1.00576783754989     -5.88358155474738
  C   7.30053110928797     -0.00300294878796     -5.32751019777216
  N   7.09947378347290     -0.59195472972995     -4.15964709794881
  C   6.06379358313541     -0.11850804677564     -3.42402105350014
  C   5.74327824692629     -0.65479940230678     -2.16927002242074
  C   4.67220291784998     -0.14358377935318     -1.44142798666815
  C   3.90065798364953      0.90328297311195     -1.93846000324995
  C   4.19350287582474      1.46275026841214     -3.18978917285852
  N   3.46406400670455      2.47929432772192     -3.70070313838607
  N   5.27806427346156      0.93593127004213     -3.91200645611669
  H   2.74973532124198      5.43098105531666     -7.11083801063463
  H   3.38359271019458      3.80034004278362     -7.56883203281148
  H   4.46459452846260      4.94819782995821     -6.79612445662043
  H   8.13787781301069     -0.38676155446692     -5.92204500785680
  H   6.36633638982558     -1.47224659122202     -1.81066716413584
  H   4.43330041992218     -0.57069030015363     -0.46469723021694
  H   3.05672781420576      1.32756602844742     -1.39740458010128
