23
Coordinates from ORCA-job ./opt_b3lyp_cdz
  C   15.19408089507929      2.07682812135114     -2.98038818396106
  C   15.15112705998057      3.44041343551886     -2.33210995331669
  O   16.19105535158786      4.02299140806156     -2.05589149801012
  C   13.84856491180044      4.12822134135365     -2.00388663091497
  C   13.95660172916699      5.39611496115387     -1.39990536933812
  C   12.85610780475847      6.14576385385445     -1.04222540725522
  C   11.56122842701915      5.65264338906093     -1.27660326723026
  N   10.46623954168485      6.36275543357803     -0.93764832318855
  C   9.29565012511345      5.79762620754690     -1.20636840924324
  N   9.06342204683895      4.61061888705162     -1.77207150786908
  C   10.13346015986430      3.88632175969696     -2.11793511207460
  N   9.97119533937203      2.68921887741310     -2.68874171292737
  C   11.08736683102724      2.02763734800664     -3.00428512379333
  N   12.34492934352862      2.40405690261687     -2.82495131330082
  C   12.55744510579114      3.60873670393968     -2.25092435745612
  N   11.43869217411100      4.39070112644105     -1.87797096374524
  H   16.24791774894512      1.79917069933589     -3.11323097303382
  H   14.66783874184200      2.08317969833861     -3.94660683263751
  H   14.66930522763980      1.33129653290260     -2.36443822813370
  H   14.96937035387459      5.76335000339482     -1.22544112516970
  H   12.93155389850985      7.12634542189611     -0.57506366110761
  H   8.40654432299556      6.37608170077455     -0.93004036956909
  H   10.94261285946688      1.04666618671174     -3.47174167672605
