23
Coordinates from ORCA-job ./opt_b3lyp_cdz
  C   7.35789711335284      5.16924675601523      4.62843692961434
  S   7.99772401564240      4.77769022357365      2.93833431792120
  O   8.34854327157477      3.29198753453882      2.95343487225430
  C   6.36526095548862      4.91821502805438      2.08927943891224
  C   5.79071428365877      6.15978998924515      1.82616123626660
  C   4.57969579792130      6.22012371953126      1.12471577004558
  N   3.97609485860847      7.40069621865588      0.85148597037658
  C   2.83673388960256      7.33019495826907      0.17872508777332
  N   2.19868203616684      6.24136664752113     -0.26869848811279
  C   2.77241278047601      5.06179677972560     -0.01400849376769
  N   2.20150935806382      3.92508175425839     -0.42676496409216
  C   2.84136965101044      2.78813876873172     -0.13127450235446
  N   3.98323511913396      2.62978004533807      0.52527602206316
  C   4.58411798951108      3.76052674595199      0.95475085508364
  C   5.79746510583947      3.73009730653184      1.66019769862924
  N   3.99669833558371      5.01279063422528      0.70105409858174
  H   8.22939274067305      5.11046674422310      5.29586610921669
  H   6.61935601412424      4.39906953457024      4.89215501600182
  H   6.92127804246063      6.17864783086631      4.64734121792769
  H   6.23329567156879      7.10846794486226      2.12874317096936
  H   2.34969967761887      8.28732174070329     -0.04170120100040
  H   2.35660478890866      1.86824082801499     -0.47844191471152
  H   6.28040850301052      2.77287226659229      1.85725175240136
