23
Coordinates from ORCA-job ./opt_b3lyp_cdz
  C   7.23243437355308      5.30467997019496      4.51688680690903
  S   7.81767175880542      4.55268486931120      2.93030912272263
  O   8.07587535002865      3.07866442741641      3.19791808253663
  C   6.17275760847995      4.72587617587685      2.07208030679594
  N   5.75596043551130      5.98931008439122      1.92775137308895
  C   4.62280313459816      6.16558178795393      1.24190081834261
  N   4.11635771585547      7.38613337540212      1.05753166421398
  C   2.97889459643839      7.46590896025308      0.35264481570699
  N   2.27768285931709      6.48420353594431     -0.19286592384373
  C   2.76679891307411      5.23377561987164     -0.01793038575140
  C   2.11549194524815      4.10818331179094     -0.54402471380373
  C   2.64292945986063      2.83683385999050     -0.34560564532982
  C   3.82176369291337      2.65265101464733      0.37547011675998
  C   4.49538367036186      3.75419005265204      0.91238382581106
  N   5.64561707202682      3.61287728325621      1.61999579672675
  N   3.95245270361655      5.03350702602013      0.70488059068792
  H   8.12212935501488      5.38826800876453      5.15625714788578
  H   6.50810575838245      4.60567704573815      4.95927272344531
  H   6.79219351041613      6.28948682609760      4.31039169223514
  H   2.58115999684516      8.47764637976344      0.21184377958340
  H   1.19761994604890      4.28875284461755     -1.10079685402208
  H   2.12611184737794      1.96859051029827     -0.76091216804596
  H   4.26371429622554      1.67327702974755      0.55065702734452
