20
Coordinates from ORCA-job ./opt_b3lyp_cdz
  O   2.80255324632744     -6.52604109230850      0.34689364017332
  N   2.74213110730127     -6.28053011967123      1.53912120502872
  O   2.12133469623465     -6.88980959962604      2.39186014552274
  C   3.51969072302457     -5.08264833167028      2.01361308381948
  N   4.28453469853492     -5.31799946493550      3.06642896777156
  C   4.99825931391276     -4.26937599334051      3.50231574801655
  N   5.82862156743335     -4.39442227144864      4.53257534151502
  C   6.48934683353143     -3.28874985373742      4.91336602084703
  N   6.42148036288165     -2.07439605242202      4.39461583825599
  C   5.58914930380611     -1.92094410133682      3.33701981039940
  C   5.43320462507531     -0.68288782936035      2.69598492278760
  C   4.57406231931762     -0.55981292363241      1.61017538189299
  C   3.85493345021989     -1.65644766003624      1.13507150805816
  C   3.99047848766091     -2.90242448639286      1.75197811470208
  N   3.31433035215792     -3.99621885234137      1.31348362848519
  N   4.85592193704700     -3.01386444449857      2.85243291202597
  H   7.16810610319262     -3.41450267935149      5.76442249071089
  H   6.01279371991071      0.14989694657958      3.09044255443978
  H   4.46135426650487      0.40942399173391      1.11929921832847
  H   3.17753288592496     -1.59676518220318      0.28501946721898
