21
Coordinates from ORCA-job ./opt_b3lyp_cdz
  F   -0.01864977252197     -6.23655042453076     -0.19780213103805
  C   1.15876270915047     -6.88024894061958     -0.32624615577154
  F   1.09128204853436     -8.01128358407599      0.40355098770220
  F   1.27882275121638     -7.24326328252428     -1.62119205568850
  C   2.32360255825691     -6.00717722644597      0.09388080299722
  C   3.45977244279634     -6.59893157189848      0.63750346872016
  C   4.56587052071784     -5.80740757551523      0.98082943989331
  N   5.68650648004148     -6.34821968351781      1.50779679970989
  C   6.66487591199259     -5.49882309881141      1.79250743033580
  N   6.68904393753871     -4.17123061485456      1.62706125253015
  C   5.59244157964554     -3.60908651006824      1.10918577227141
  N   5.53021598292303     -2.28873135014495      0.91245353325986
  C   4.39392933400680     -1.80988743478574      0.39202086134343
  N   3.30327990619007     -2.47644250542915      0.03826969327522
  C   3.33877902367268     -3.81464280437654      0.22456708731608
  C   2.24887427785494     -4.63179397642368     -0.10815650050138
  N   4.48235090751609     -4.42322945468265      0.76508232282406
  H   3.53788345648847     -7.66864873466769      0.81676417104303
  H   7.57337096911762     -5.93932009684423      2.21922152064720
  H   4.36365273373707     -0.72486386506944      0.23941774433224
  H   1.36788224112444     -4.14422726471353     -0.51910604520181
