21
Coordinates from ORCA-job ./opt_b3lyp_cdz
  F   0.82189686426379     -6.13931345433395     -1.39813336387904
  C   1.57688732436312     -6.81587617848690     -0.52331110472998
  F   0.75595025948425     -7.48576014266848      0.30723729644840
  F   2.30052207284877     -7.72215798082955     -1.20926470102470
  C   2.50447402574724     -5.89352122465598      0.27303891744726
  N   3.24430358122838     -6.52407480154255      1.19040664089310
  C   4.07599726511501     -5.76631091276481      1.91022838825815
  N   4.85395528812689     -6.30817823179875      2.84855683874746
  C   5.65671593428029     -5.47310662187901      3.52244559153690
  N   5.78566123723865     -4.16229853253356      3.38202057748566
  C   5.00815382736841     -3.58588111181017      2.43611909870889
  C   5.05010930479701     -2.20460688818137      2.18787083402882
  C   4.23865202590267     -1.64389820329056      1.20905735055302
  C   3.37023659442673     -2.43476339813364      0.45638460410207
  C   3.30577024319209     -3.81265900340867      0.68021758565743
  N   2.47182342343267     -4.61272920518963     -0.03366284255083
  N   4.13017781068333     -4.36724920735958      1.67137005012083
  H   6.28680291622973     -5.93951900346246      4.28852347193432
  H   5.73908769222836     -1.61866480940997      2.79376044573873
  H   4.28075658419441     -0.56786912209435      1.02556985800807
  H   2.72083572484817     -2.02961196616603     -0.31762553748460
