21
Coordinates from ORCA-job ./opt_b3lyp_cdz
  C   2.07284745157436      3.57083971480093     -0.06899442836069
  C   1.31375162758103      2.27553258398716     -0.05246232871587
  N   2.04226810131230      1.15403891598512     -0.08078943598090
  C   1.38850546888572     -0.01414805387005     -0.04202964600266
  N   2.08236105608976     -1.15617168564328     -0.06724488167679
  C   1.40045952397403     -2.30867960805540     -0.03155664422885
  C   0.02151009777267     -2.40978347500745      0.03018201413652
  C   -0.73662773333602     -1.22271393223949      0.05973924099930
  C   -2.14132767323667     -1.13926357145939      0.12409535827606
  C   -2.72571632520979      0.11530890194592      0.14747624386941
  N   -2.05359040655315      1.27332446581771      0.11217125065772
  C   -0.71920186020517      1.22427932107066      0.04942363601986
  N   -0.01985145970778      2.36518046034209      0.00875116579749
  N   -0.03058349375753     -0.01820083743430      0.02319571044649
  H   2.26663372488336      3.88668298164269      0.97159840080163
  H   3.04270487209629      3.44180987668461     -0.56730865401566
  H   1.47696706157845      4.35849810322381     -0.54947892152285
  H   2.01330987525427     -3.21702042901532     -0.05449110962358
  H   -0.49014993104269     -3.37095728584106      0.05725257137042
  H   -2.72992079378880     -2.05524162924808      0.15452207307665
  H   -3.81662918416473      0.20767518231303      0.19847838467627
