21
Coordinates from ORCA-job ./opt_b3lyp_cdz
  C   -0.82876687359440      3.64179001950600     -0.36893348935108
  C   -0.04600429099218      2.37260497093182     -0.17698728298415
  C   -0.64992052437109      1.12871410838923     -0.08231601672279
  N   -0.01641547458437     -0.04106157387705      0.08909744840478
  C   1.31002900069582     -0.02889412249730      0.17869539139664
  N   1.97617640892623     -1.18662069306303      0.35128921631959
  C   3.29821557517502     -1.10685550283898      0.43308528961025
  N   4.07473967483668     -0.02422722323143      0.36745535432013
  C   3.45651040626792      1.15177213039494      0.19618660170193
  N   4.18550137991862      2.27108563513447      0.12330747635398
  C   3.54147747927976      3.42999649849066     -0.04779136571540
  C   2.16631833818259      3.56319356348283     -0.15631310942368
  C   1.37007462223135      2.40277151294207     -0.08352339925953
  N   2.03740005605614      1.18856452228601      0.09510388898912
  H   -0.66767576697647      4.35378367252139      0.45942664021399
  H   -0.54752791766365      4.16187646758009     -1.30140248551527
  H   -1.90581917353914      3.42497836054080     -0.41879942666902
  H   -1.74252452792294      1.06053579912336     -0.14970225476158
  H   3.82494259412632     -2.05844345272625      0.57353035321172
  H   4.18024344286649      4.31904433393974     -0.10166047776276
  H   1.69720557108153      4.53433097297065     -0.29491835235696
