20
Coordinates from ORCA-job ./opt_b3lyp_cdz
  N   1.99367618486600      3.43593950471807     -0.04734029381980
  C   1.31186715831651      2.27259772996320     -0.02099449419130
  N   2.05352548240268      1.15043068505253     -0.05403305204152
  C   1.39726078997992     -0.00605428781778     -0.02889466676626
  N   2.08814712644359     -1.15391935960389     -0.05987968011049
  C   1.40300496325557     -2.30237291761588     -0.03362517800857
  C   0.02258443918284     -2.40298875692096      0.02362186433415
  C   -0.73278998273335     -1.21597255844113      0.05746564743530
  C   -2.13666203275315     -1.13542288133943      0.11617101102997
  C   -2.72261661575903      0.11952537887832      0.14311361922662
  N   -2.05531798173283      1.27849576069176      0.11758499410162
  C   -0.71705046349124      1.23519590002576      0.06165045062175
  N   -0.02874116872712      2.37285756086607      0.03513455052182
  N   -0.02621701780205     -0.01042917763038      0.03040724524737
  H   3.00333202041120      3.41482881572187     -0.08932919141702
  H   1.48253245787926      4.30761253278937     -0.02421278324730
  H   2.01369852478530     -3.21248403361622     -0.06083900579573
  H   -0.49010202697813     -3.36372254292729      0.04307058470946
  H   -2.72433064318484     -2.05214708315347      0.13883379735361
  H   -3.81436121436113      0.20886973035946      0.18886458081631
