17
Coordinates from ORCA-job ./opt_b3lyp_cdz
  C   0.57399710702729      6.70764980469646     -7.37988670721643
  C   -0.78327783769972      6.57766665888378     -7.67075842244926
  C   -1.58105798947902      5.89545092001004     -6.74757489238150
  C   -2.98000224253455      5.64691226730598     -6.84049282627939
  N   -3.66434017889449      4.99353195759517     -5.92547800150620
  N   -3.06539641065666      4.51441542678726     -4.82817351675572
  C   -1.75053593133358      4.70178364813858     -4.65723788724990
  N   -1.15486996709372      4.21694948868462     -3.55075087401921
  C   0.14843036371963      4.43403006553784     -3.43805446141250
  N   0.97010972835551      5.07594463738786     -4.27926491871618
  C   0.41730522977231      5.57157194141006     -5.38858557790325
  N   1.16865699040981      6.22984499101257     -6.28658531225646
  N   -0.97134308547685      5.39594742602088     -5.60924963063126
  H   1.23133848730228      7.23606242131160     -8.07977199956392
  H   -1.22686014709353      6.98494403389558     -8.57814957876770
  H   -3.53105163107073      6.01070221272562     -7.71088392980953
  H   0.62117751474602      4.03458209859607     -2.53327146308152
