21
Coordinates from ORCA-job opt_b3lyp_cdz
  C   0.28130843936661      7.58117495627329     -5.46803695512688
  C   -0.44711950274707      8.75001281834085     -5.45154559201455
  C   -0.66648955310848      9.45694909790980     -4.23555019693883
  C   -1.40437762888731     10.65156938352874     -4.18348907702863
  C   -1.59657485219247     11.31346631000643     -2.97350704952273
  C   -1.06225610426708     10.80227522312115     -1.80399432177080
  C   -0.31168367290428      9.60279081085110     -1.80303631823127
  N   0.18871564240989      9.14160660776795     -0.64773634718738
  C   0.89674155998053      8.00020891815704     -0.68143761015084
  C   1.14091146601669      7.27535162016123     -1.82347373336739
  C   0.62388905658771      7.73704585602924     -3.06769372632213
  C   0.81919139914969      7.06954883171352     -4.28085882491222
  N   -0.12099155888495      8.93409566367839     -3.04480172392653
  H   0.44085515287208      7.05022860557152     -6.40973357417275
  H   -0.87791151000075      9.17247102120827     -6.35896061521322
  H   -1.81473245000614     11.03351758470400     -5.11762245669892
  H   -2.17259420988545     12.24183539110198     -2.94735969285711
  H   -1.18528689587333     11.28296053983038     -0.83531213970319
  H   1.28800375266036      7.65759950210183      0.28320167281912
  H   1.72015151867688      6.35280464590112     -1.81286220779362
  H   1.39905291103683      6.14747840004209     -4.26552996388014
