18
Coordinates from ORCA-job ./opt_b3lyp_cdz
  F   -1.97973771887304      1.05651241395062     -0.09396706280409
  C   -0.64945898626314      1.12358425907407     -0.03556448072717
  N   -0.03656320176393     -0.02869471790084      0.14204672053623
  C   1.29890459735007     -0.01977926327722      0.20806616261839
  N   1.95796060809965     -1.16834244929198      0.38772161711792
  C   3.29004716311919     -1.09007364022139      0.44470657805890
  N   4.06349853515861     -0.01673471856627      0.34661100146927
  C   3.44428036265557      1.16444909967259      0.16482790397194
  N   4.16777349839062      2.27566343441613      0.05940386646727
  C   3.51753743129824      3.43695304230408     -0.12131130507735
  C   2.14509186655739      3.56702905004328     -0.20670399321547
  C   1.34910607077903      2.40645585774766     -0.09868309116342
  C   -0.05269581442626      2.36665859173761     -0.16399439872527
  N   2.02369721391366      1.19566007752060      0.08953503395793
  H   3.81256773585727     -2.04253641477910      0.59249844478431
  H   4.15576595111492      4.32368581086450     -0.20239668799197
  H   1.66194342095746      4.53201441923982     -0.35396828820690
  H   -0.63102873392533      3.27635514746587     -0.30895802107052
