18
Coordinates from ORCA-job ./opt_b3lyp_cdz
  F   1.95757130870610      3.37322720211609     -0.00986113734257
  C   1.28668355705746      2.22909319671321      0.00661679658704
  N   2.04285738530086      1.15015609651193     -0.03201604214379
  C   1.38892443641360     -0.02124834288426     -0.01656289348142
  N   2.07971211616664     -1.15907119194440     -0.05316944099522
  C   1.39709218535864     -2.31364194992487     -0.03671418563117
  C   0.01874034393094     -2.41283472820272      0.01586401320547
  C   -0.73842932047334     -1.22532004143995      0.05566814010231
  C   -2.14390668357026     -1.14363688449878      0.11110230394238
  C   -2.73004822408559      0.10845523916695      0.14488890123068
  N   -2.05600742029749      1.26807494534394      0.12875725935049
  C   -0.72630408535773      1.22013472195251      0.07650322232073
  N   -0.02355705939929      2.36292942868998      0.05894140764617
  N   -0.03238517624075     -0.02093358313727      0.03870705199263
  H   2.01045410308234     -3.22088226551816     -0.06837094849499
  H   -0.49462521522623     -3.37331663734069      0.02741453661841
  H   -2.73127457937924     -2.06069636228993      0.12594369954345
  H   -3.82082767198665      0.20130115668640      0.18823731554935
