19
Coordinates from ORCA-job ./opt_b3lyp_cdz
  S   -1.06381589149033      3.82242264134812     -0.44029521650770
  C   -0.07820874938978      2.35813841571423     -0.13867928947428
  C   -0.68350245627905      1.11169731481399     -0.02929782092835
  N   -0.03606809358167     -0.04641441400683      0.12969740368792
  C   1.29660372045852     -0.02225895479515      0.20075143794122
  N   1.96688146528138     -1.17028086113083      0.37630337935032
  C   3.29376513569635     -1.08631346452053      0.44269162198209
  N   4.06216550313020     -0.00469222090121      0.35359410222043
  C   3.43663030176052      1.16920284559813      0.17234519338363
  N   4.16103281442161      2.28561070723759      0.06787027950850
  C   3.51103981333182      3.44042279159461     -0.11348641275047
  C   2.13368967616883      3.57007248650509     -0.19356736282969
  C   1.34239913751520      2.41273992932210     -0.08710770408820
  N   2.01580167113028      1.19967628031312      0.09524060343261
  H   -0.96408471495209      4.37088150733948      0.80451152341320
  H   -1.77591731598539      1.04747409450379     -0.07674097691534
  H   3.82309855345156     -2.03515559315985      0.59000342183770
  H   4.14632275686453      4.32906883898041     -0.19993760607301
  H   1.64700667246747      4.52955765524372     -0.35137657719059
