18
Coordinates from ORCA-job ./opt_b3lyp_cdz
  Cl  -0.97836972279186      3.80844348663828     -0.39048597746848
  C   -0.05141418276782      2.34374685423371     -0.15858422573996
  C   -0.67951566307006      1.11779861252872     -0.03406406040598
  N   -0.03176836003342     -0.03892118337056      0.14501630544234
  C   1.30009005263055     -0.02179836741625      0.20888771672241
  N   1.96710622086145     -1.17296593223463      0.38834167644329
  C   3.29327144663759     -1.09411622926079      0.44386900939018
  N   4.06661168308461     -0.01475862963319      0.34475287826378
  C   3.44707233621533      1.16052510660610      0.16466632642210
  N   4.17342943018894      2.27664827063660      0.05853806967818
  C   3.52784558637923      3.43386112022278     -0.12043140374787
  C   2.15080388554729      3.56936186047167     -0.20548721354986
  C   1.36250805623748      2.41100019477409     -0.09718397521743
  N   2.02542055002564      1.19517529345201      0.09008230337832
  H   -1.77186778661038      1.06299440498375     -0.08129920467942
  H   3.82046864437472     -2.04411895322886      0.59086848118022
  H   4.16606675437527      4.32078603225213     -0.20176686632960
  H   1.66919106871545      4.53273805834441     -0.35174983978223
