18
Coordinates from ORCA-job ./opt_b3lyp_cdz
  Cl  2.17658262890562      3.74732490665141     -0.02149325513327
  C   1.29092701512891      2.23654329016859      0.00241457451710
  N   2.04051428229319      1.14824387470180     -0.03547125149366
  C   1.38540630059138     -0.02451354318230     -0.01844976097526
  N   2.07753939562833     -1.16139098387706     -0.05437887743094
  C   1.39565783718573     -2.31664114260675     -0.03625926844010
  C   0.01734722794251     -2.41634449369494      0.01736639225773
  C   -0.74052642515246     -1.22892726563261      0.05638938130193
  C   -2.14620497407486     -1.14657393107008      0.11262471901581
  C   -2.73192169084290      0.10579078335006      0.14533305546085
  N   -2.05700811070235      1.26513274435076      0.12744045528253
  C   -0.72751526494121      1.21553216621579      0.07445513796653
  N   -0.02424199310563      2.36003557372575      0.05530652498377
  N   -0.03474010867786     -0.02489830562574      0.03766210799792
  H   2.00954368116628     -3.22349817258387     -0.06739388571967
  H   -0.49546643191341     -3.37712335616770      0.03028578509348
  H   -2.73403941799859     -2.06332987798299      0.12888118870084
  H   -3.82258395143271      0.19929773325989      0.18922697661441
