23
Coordinates from ORCA-job ./opt_b3lyp_cdz
  C   -2.43290675117403      1.90017304023620     -1.10192237589935
  N   -1.98999474331583      1.68966033793308      0.26544018125302
  C   -0.77832846607949      1.20012283487427      0.62703711845719
  N   0.07825682368800      0.88540325239944     -0.36389320628612
  C   1.27771682759223      0.40196235069647     -0.06222153151651
  N   2.12703415515186      0.08984369356352     -1.05477635832634
  C   3.31636317456002     -0.39102144181446     -0.69014020377903
  N   3.79299664985065     -0.61057017781426      0.52950494897340
  C   2.97748319671516     -0.31290880028821      1.55957292612306
  N   3.39524996119800     -0.50982845985494      2.80436602136472
  C   2.54843521239298     -0.19893497277731      3.80668379289007
  C   1.28000003150408      0.30843115996458      3.64056734544447
  C   0.79978362670237      0.53173382352886      2.32338421648871
  C   -0.45198017671509      1.03636720753170      1.99084027858713
  N   1.68222812018121      0.20780793416071      1.28291188901365
  H   -2.66708330338499      2.96354766097147     -1.28132479452643
  H   -1.62220370103522      1.59225918196484     -1.77258424945989
  H   -3.33248479377906      1.29997374177223     -1.32148867816482
  H   -2.62827140018732      1.92410287947094      1.01518849796252
  H   3.99527981216679     -0.63976084661368     -1.51527026639956
  H   2.93561917242908     -0.37774586197537      4.81609653180945
  H   0.63531188492078      0.54305996422043      4.48702983208934
  H   -1.14986531338081      1.29299149784879      2.78788808390183
