23
Coordinates from ORCA-job ./opt_b3lyp_cdz
  C   1.76607040532303      4.28657048530848     -0.85017648655861
  N   1.37041577413667      3.70071602353255      0.41463981916501
  C   1.07248066467533      2.40003688445211      0.62132882945607
  N   1.14923572486451      1.56220070067098     -0.42744309653776
  C   0.85394078513860      0.28385253243118     -0.20856937449005
  N   0.91741640428001     -0.58692130955498     -1.22452565566920
  C   0.61492846712563     -1.86703358354996     -0.97652225101949
  C   0.23793796727531     -2.36939371859663      0.25738130259219
  C   0.16161341029505     -1.47981659979688      1.34639576655277
  C   -0.20233393619835     -1.81885371018578      2.66173638211700
  C   -0.22610618899980     -0.81396684415437      3.61694444371443
  N   0.07208097125974      0.46848428947260      3.38954804034704
  C   0.42358983644904      0.82496191537275      2.14423966597316
  N   0.72515153133301      2.09165489707256      1.88971480940735
  N   0.47579522838076     -0.14110846012404      1.09650580666538
  H   1.04506211133084      5.05781297778178     -1.17212229536781
  H   2.76406776769009      4.75146090859688     -0.77427126580905
  H   1.79730327384379      3.48892277216844     -1.60197262695397
  H   1.29206171947725      4.28188247998716      1.24185915944265
  H   0.68184609349989     -2.53932282318895     -1.83994270538805
  H   0.00108969819799     -3.42160861865256      0.40916660333816
  H   -0.45456491782877     -2.85168063159441      2.89804295037516
  H   -0.50672279154993     -1.05340056744850      4.64951217864723
