22
Coordinates from ORCA-job ./opt_b3lyp_cdz
  C   -2.75249143190959      1.52954105068455     -0.83593375406852
  C   -2.01102042893986      1.69723719264031      0.26897444481677
  C   -0.67239269704203      1.11173976591537      0.43848911118446
  N   -0.18389250206575      0.37053081742135     -0.58157336146460
  C   1.01839569547480     -0.17593792739980     -0.47200120901706
  N   1.50938105495959     -0.91510854811009     -1.48505875940627
  C   2.72004014635427     -1.43532707275352     -1.31334946933332
  N   3.53638278514124     -1.33110261310211     -0.26480215959047
  C   3.09261024272676     -0.60430742002475      0.77137232712093
  N   3.86322659382978     -0.46093275401601      1.85355995934633
  C   3.39027780779732      0.27110926714138      2.87068070949464
  C   2.15490824507513      0.89574984682058      2.88782251292269
  C   1.32025936869621      0.76226393350051      1.76043878385171
  C   0.04090210820610      1.32880504968325      1.61357877506804
  N   1.80923121707410      0.00035445293182      0.69834914248315
  H   -3.74318231906879      1.98045206959442     -0.92557196224591
  H   -2.37013994165028      0.93381770344985     -1.66775664278758
  H   -2.38533644436656      2.29229466182057      1.10748634524872
  H   3.10102427719636     -2.03357857430655     -2.14994662865049
  H   4.05790783662075      0.35970700594194      3.73525773868055
  H   1.81273960278313      1.48189583270351      3.73974857952352
  H   -0.36405121689266      1.92815625946304      2.42851551682247
