22
Coordinates from ORCA-job ./opt_b3lyp_cdz
  C   1.44828158744210      4.74838084248272     -0.05437871452564
  C   2.02966754742717      3.54061947664725     -0.07388495750539
  C   1.27255625807877      2.27763559324197     -0.03749780174279
  N   2.01324812543439      1.16206888431292     -0.06370611608001
  C   1.36984598782708     -0.01267212286589     -0.03242688091533
  N   2.07499048542034     -1.14624701008948     -0.05727808251547
  C   1.40397114943760     -2.30667161231731     -0.02507400655722
  C   0.02693582860377     -2.42084196070435      0.03237919612666
  C   -0.74433560276922     -1.24059697833484      0.05987519054154
  C   -2.14891654150081     -1.17287469266482      0.11789112531229
  C   -2.74723766845019      0.07668932376867      0.13801144981085
  N   -2.08910485534975      1.24099454382894      0.10628037027883
  C   -0.75168686161963      1.20804564607824      0.05082428067728
  N   -0.06630695352093      2.35107141459095      0.01782267816504
  N   -0.04974172993332     -0.02987154086679      0.02646845870865
  H   2.04535288926401      5.66282816551780     -0.08278566540147
  H   0.36031655109270      4.83613370533890     -0.00946766950938
  H   3.11425026709220      3.41786718056332     -0.11853413099077
  H   2.02605996221432     -3.20861018630416     -0.04739224775772
  H   -0.47553176690848     -3.38695460237194      0.05687869731634
  H   -2.72798555663444     -2.09491725916190      0.14538480410549
  H   -3.83949910264768      0.15641318930983      0.18311002245817
