17
Coordinates from ORCA-job ./opt_b3lyp_cdz
  C   0.76991364642759      5.57243822328513      7.78397460345828
  C   -0.40501091258302      6.29397754312587      7.69679756060625
  C   -1.36446104934793      5.90682790528002      6.72998013863594
  C   -2.61397585494342      6.49412943088187      6.47203630023805
  N   -3.45020985348431      6.04701073671033      5.52868651202353
  N   -3.14714579303626      5.01611272903099      4.77628430484225
  C   -1.95223867502731      4.37763139353244      4.95257676347531
  N   -1.68468810244151      3.33181833041689      4.16394385750781
  N   -0.52478287596124      2.68018070709424      4.30575084676646
  C   0.35847968889853      3.05175106746678      5.20961839041921
  C   0.17180695655156      4.15089880197216      6.09874523254207
  N   1.07499645168036      4.51227194587847      7.00601496402527
  N   -1.04281053529711      4.81603819991827      5.93451655022694
  H   1.53036158647199      5.84809615016651      8.52164057265482
  H   -0.61257781246180      7.14468080181981      8.34473619783729
  H   -2.94283242750246      7.35672265127955      7.05358312481907
  H   1.28850556205635      2.48528338214064      5.28297407992135
