20
Coordinates from ORCA-job ./opt_b3lyp_cdz
  O   1.55854542436426      4.66643248068256     -0.03089841923918
  C   2.05387416454686      3.56841638592025     -0.05299587199130
  C   1.25565495410028      2.27767060861215     -0.02076636296265
  N   2.01086714074175      1.18035115396423     -0.05446546972363
  C   1.37200108749132     -0.00286549189632     -0.02935866699931
  N   2.07717349479739     -1.13104422407511     -0.06133732176690
  C   1.40751228360208     -2.29503997704871     -0.03494398632944
  C   0.03199919757670     -2.40720758911093      0.02336589406802
  C   -0.74000951401459     -1.22602786400864      0.05835805763348
  C   -2.14560451724719     -1.16188845188331      0.11840360564209
  C   -2.74785364181625      0.08388795355094      0.14639043596125
  N   -2.08874518466427      1.25013374428734      0.12030439133981
  C   -0.75667854591830      1.22109356994280      0.06326968598526
  N   -0.07026211090214      2.37284262412221      0.03572174516955
  N   -0.04790556046733     -0.01486960331775      0.03101038585669
  H   3.15501374315205      3.38641734337280     -0.09978476927831
  H   2.03057962870986     -3.19560643816225     -0.06307266405008
  H   -0.47163618730335     -3.37281277394375      0.04309021511377
  H   -2.72141608561448     -2.08612680667769      0.14126181724581
  H   -3.83966977113466      0.16276335566917      0.19323729832509
