20
Coordinates from ORCA-job ./opt_b3lyp_cdz
  C   -3.31314555002625      1.04337594657194     -0.19885241614186
  C   -2.10186544950029      1.07687165171736     -0.13362847653652
  C   -0.66830452162323      1.14002158613890     -0.06002341229287
  N   -0.01891215969574     -0.02882206556501      0.12487011859670
  C   1.30979953083298     -0.01239052831552      0.19860252954829
  N   1.97378186713823     -1.16580330446963      0.38246744712806
  C   3.30044612242111     -1.08875660473792      0.44826718374724
  N   4.08040623337488     -0.01366360415302      0.35657211738303
  C   3.46352876325444      1.16406414147057      0.17240128264167
  N   4.19065153885611      2.27957307356058      0.07267860737148
  C   3.54522115040766      3.43911255666903     -0.11078819018596
  C   2.17060648770935      3.57115494661587     -0.20573021569646
  C   1.37774685153171      2.41105796766797     -0.10410679316787
  C   -0.02665261202201      2.36987641699570     -0.17886924570783
  N   2.04542251912036      1.20004161145271      0.08710821617186
  H   -4.38410687532151      1.00080588262825     -0.25517406887352
  H   3.82279924034166     -2.04113821850734      0.59861471410101
  H   4.18492827056623      4.32557783019302     -0.18651290073531
  H   1.68838078686188      4.53622121343242     -0.35525454968162
  H   -0.58210219422756      3.29397950063430     -0.32726194766949
