19
Coordinates from ORCA-job ./opt_b3lyp_cdz
  C   2.59058111945006      4.45498180153758     -0.06274476754402
  N   1.99247480067601      3.43381469529807     -0.03933669214880
  C   1.28995420683874      2.23518698000803     -0.01409890384245
  N   2.04115954889388      1.14137266865554     -0.04949128278225
  C   1.38365062336549     -0.03024919377717     -0.02631909887731
  N   2.07450756819904     -1.16656481185699     -0.05935429330220
  C   1.39275084664049     -2.32253849683124     -0.03518764811790
  C   0.01499207864332     -2.42057579633144      0.02196755175804
  C   -0.74237600066420     -1.23227227462404      0.05807046154996
  C   -2.14837307145744     -1.15059591280097      0.11720218231737
  C   -2.73523335455667      0.10073832025077      0.14640044857988
  N   -2.05977016965306      1.26040531451769      0.12243156867989
  C   -0.73158541946388      1.21145937967179      0.06667314312261
  N   -0.03062347698125      2.35758090417279      0.04157120710201
  N   -0.03686879664749     -0.02855221074673      0.03304706097695
  H   2.00656198499199     -3.22933149804617     -0.06419150713045
  H   -0.49878146256116     -3.38076310377414      0.03985008899151
  H   -2.73510724775950     -2.06795812373971      0.13832547090303
  H   -3.82564377795437      0.19437135841633      0.19240500976413
