19
Coordinates from ORCA-job ./opt_b3lyp_cdz
  N   -3.26565168108844      1.04910822023780     -0.18090346350065
  C   -2.10479966578042      1.06665810831937     -0.11945763447413
  C   -0.65920535636538      1.13259218814292     -0.04957841225704
  N   -0.02245545228150     -0.03724329196087      0.13342304213168
  C   1.30909374779754     -0.01956627759700      0.20319881109156
  N   1.97443890369711     -1.16833240338243      0.38505796268297
  C   3.30251858586720     -1.08983322229477      0.44690271425150
  N   4.07689568083702     -0.01177459940788      0.35187548751190
  C   3.45612389174430      1.16309845132557      0.16908616824748
  N   4.18128525030764      2.28157872844045      0.06621173651983
  C   3.53682960886577      3.43835842154232     -0.11551884533699
  C   2.15828914034256      3.56816636149773     -0.20643866970324
  C   1.37204626672390      2.40930435160677     -0.10177701245456
  C   -0.03791698872559      2.36537807583755     -0.17241389654411
  N   2.03856277166127      1.19745120836433      0.08811210208055
  H   3.82715324853348     -2.04070142042334      0.59608352780755
  H   4.17462439661729      4.32580232445697     -0.19377228667517
  H   1.67451204503453      4.53251590360767     -0.35500562118606
  H   -0.59967439378829      3.28578887168685     -0.31957571019306
