17
Coordinates from ORCA-job ./opt_b3lyp_cdz
  C   1.21829582560667     -8.56065994568203     -6.31222281484711
  C   -0.16724059663291     -8.73587190967762     -6.13199483545154
  C   -0.92028937307119     -7.69251234885571     -5.61242206945099
  C   -2.33819578128541     -7.69126566680276     -5.36100932076862
  N   -2.99521157897919     -6.67812307438150     -4.86949786938739
  N   -2.34586180497960     -5.52064832452636     -4.55583036511537
  C   -1.04574377346569     -5.44336374584842     -4.75735922104448
  N   -0.39835879677623     -4.26596792821973     -4.43601581460032
  N   0.87857219031941     -4.14828986972817     -4.61836489259394
  N   1.64344041077235     -5.12630961403572     -5.11575345092843
  C   1.07499394319204     -6.29716254301309     -5.44872711294837
  C   1.83414821107422     -7.36979152472804     -5.98016742426664
  N   -0.29045892427836     -6.49980375269195     -5.28221033137199
  H   1.81404107371301     -9.37992432764321     -6.72098480047104
  H   -0.66624683509876     -9.66957252738659     -6.38944920763569
  H   -2.91260435716151     -8.59266247694237     -5.59315280758406
  H   2.90213016705116     -7.19725041983676     -6.10518766153392
