19
Coordinates from ORCA-job ./opt_b3lyp_cdz
  N   -1.39511386281252      4.53899582207788     -0.49462634019344
  C   -0.79432361380199      3.55149965440572     -0.34199976132625
  C   -0.04741571983140      2.35238897520926     -0.15492959939463
  C   -0.66983711177154      1.10595549273926     -0.02791807768153
  N   -0.02993494759284     -0.04412440158456      0.14799867074764
  C   1.31030330852411     -0.02822063685006      0.21071865538126
  N   1.97115217527518     -1.17342579125081      0.38705209028748
  C   3.30427846213322     -1.09970484812829      0.44209945501211
  N   4.07596256714366     -0.02529864566133      0.34380594447478
  C   3.45565262113950      1.15383947318486      0.16510072944409
  N   4.18292190877209      2.26636452844958      0.05976733264312
  C   3.53969711793965      3.42587785433733     -0.11757511410413
  C   2.16150034728436      3.55868857622667     -0.20068745745572
  C   1.37489506263136      2.40254010391807     -0.09269951185695
  N   2.03634249103147      1.18907854958124      0.09224389296997
  H   -1.76253895151125      1.04916237603751     -0.07354998133778
  H   3.82591396786248     -2.05263234377878      0.58750197451120
  H   4.17832579411943      4.31205710225909     -0.19866946553626
  H   1.67695838346506      4.52286815882742     -0.34574343658496
