23
Coordinates from ORCA-job ./opt_b3lyp_cdz
  C   -0.16016533968768      4.37383858623948     -1.17733825225870
  C   -0.37071398718410      3.89293416843041      0.25270749079979
  O   -0.55235237909907      4.71943297149572      1.14071308846156
  C   -0.34722229983582      2.43144996702973      0.51489917202679
  C   -0.13843919014756      1.51328425034264     -0.51974959720770
  N   -0.09768324717744      0.19015348107590     -0.40303330526290
  C   -0.27066457335272     -0.34057060351798      0.81513534191623
  N   -0.23332621002071     -1.66702697387265      0.95528121792581
  C   -0.41065837537299     -2.14905035301575      2.18861540180819
  N   -0.62224863935188     -1.47684325756760      3.30989223034629
  C   -0.66778854027340     -0.13457874909848      3.21472314116645
  N   -0.87878065705008      0.58027237161498      4.31946066437572
  C   -0.91958310759043      1.91057525402982      4.19953566819294
  C   -0.75897417680905      2.60792446518497      3.01090603678391
  C   -0.53506492198090      1.88487033383163      1.82834817208755
  N   -0.49143920481978      0.48740823553485      1.94928470282771
  H   0.81866780444008      4.05567463760953     -1.57184229134228
  H   -0.93570327508461      3.98108857965432     -1.85511963423770
  H   -0.20781464711129      5.46984887183200     -1.17238528440081
  H   0.00991480677844      1.88026862031280     -1.53932712841941
  H   -0.37609457587722     -3.24081950671280      2.28145799198482
  H   -1.09492462681812      2.46184041640028      5.12991658736716
  H   -0.79828063657365      3.69037423316611      2.95105858505842
