23
Coordinates from ORCA-job ./opt_b3lyp_cdz
  C   1.00102281308991      4.89011971172819     -0.53680948173998
  S   2.30370478173812      3.92771213585388      0.36003932633044
  O   3.49155093593733      3.79896433553848     -0.57826576657098
  C   1.33651824577337      2.33082287855433      0.34417386258158
  N   1.93100450085265      1.30813142984311     -0.23561525614039
  C   1.28471243049750      0.12808197819027     -0.16887370552710
  N   1.82070757407788     -0.94784163309268     -0.73630930432011
  C   1.15300417010630     -2.10952683628202     -0.65103336184518
  C   -0.06184522479067     -2.27110076995747     -0.01257555293870
  C   -0.65664555106531     -1.14724371076161      0.59697016591430
  C   -1.88752906788730     -1.13779768600638      1.28241707383705
  C   -2.33316589980282      0.05604266639793      1.82069468906716
  N   -1.67384620361324      1.22103183115593      1.74242741409358
  C   -0.50432827730227      1.23867792425309      1.10356908145864
  N   0.18717188311769      2.38518697894865      1.01055289404502
  N   0.03510130686304      0.06208894439668      0.51122274089117
  H   0.04546962528232      4.79206330448111     -0.00439773920636
  H   1.35078330309278      5.93177559279310     -0.54646083651147
  H   0.95347794594570      4.49409475040105     -1.56146876533519
  H   1.63748895292040     -2.96531744566470     -1.13367054297306
  H   -0.57066765585910     -3.23312948559260      0.03275672348625
  H   -2.45622646163929     -2.06251855566564      1.37002994537026
  H   -3.28821412733455      0.09240166048783      2.35630639603337
