20
Coordinates from ORCA-job ./opt_b3lyp_cdz
  O   -2.76565941007283      1.31293351013948      0.21985444448040
  N   -1.96308896306709      1.53359797922398     -0.66273019983907
  O   -2.16066250007876      2.17807589421320     -1.68704830657935
  C   -0.56930228037585      0.96191634366755     -0.49871994537346
  N   -0.37655383270792      0.27373543915244      0.61186704617258
  C   0.83523783550038     -0.25320515444326      0.80779472936808
  N   1.08241257793222     -0.95870120281045      1.91608534642332
  C   2.31290718241962     -1.45623783083330      2.04793537865266
  N   3.34489642940451     -1.34691579807949      1.21764526287845
  C   3.14394019022172     -0.64636565454481      0.08976807246165
  N   4.14518711078920     -0.50286647925343     -0.78258414424590
  C   3.91708757140540      0.19979740316999     -1.89735249875573
  C   2.70717297725479      0.79694664192071     -2.21952211352936
  C   1.63684688260093      0.66218180474620     -1.32040099831203
  C   0.34402849372279      1.20666710124105     -1.49762522109443
  N   1.86885315884986     -0.07069653204032     -0.15407978687897
  H   2.49553138686161     -2.03140294322478      2.96295087526486
  H   4.76893002380005      0.28881375459484     -2.58047322327605
  H   2.56419247961795      1.36143354808746     -3.13976074350427
  H   0.09509268592139      1.78722217507292     -2.38119397431340
