20
Coordinates from ORCA-job ./opt_b3lyp_cdz
  O   1.72026529797167      4.30427713094270     -0.93060892356327
  N   2.03003125864543      3.52114318193000     -0.05022798117023
  O   2.88169505288532      3.66654956602663      0.80877080149759
  C   1.27265703813672      2.22325758514476     -0.02039209796126
  N   2.03832712451589      1.15588328134746     -0.06718282617507
  C   1.38420491688011     -0.02229605169256     -0.06640544939748
  N   2.07183699063533     -1.15435648231650     -0.15224386176662
  C   1.39117965831980     -2.31242654863065     -0.13244543707609
  C   0.01709062039150     -2.41089720676715     -0.02633012585166
  C   -0.73872988776799     -1.22352066857211      0.05804526026288
  C   -2.14240119411657     -1.14629432214751      0.16760286859641
  C   -2.73081490919613      0.10154899815964      0.24330740935335
  N   -2.05754736126608      1.26363361125073      0.21055097608648
  C   -0.73561910837430      1.21853043945166      0.09993208135353
  N   -0.03216109885278      2.36674236497561      0.04758526002599
  N   -0.03569441240983     -0.01876155974308      0.03074992359515
  H   2.00347864448529     -3.21746301683913     -0.20598658790559
  H   -0.49648698736642     -3.37119146753513     -0.00789010448877
  H   -2.72581328965850     -2.06571160113484      0.19169794252632
  H   -3.81833835385849      0.19220276614946      0.33543087205834
