21
Coordinates from ORCA-job ./opt_b3lyp_cdz
  F   3.16276512390333      3.88225888884577     -0.80132674589570
  C   2.13263667492084      3.48731538971793     -0.02711627719704
  F   1.16859623520342      4.42428908454424     -0.11492581025903
  F   2.55764210993911      3.44517642928989      1.24032773070325
  C   1.60106470160646      2.13189669322367     -0.50689396281225
  N   1.66057484896384      1.13421513333483      0.36077127254351
  C   1.19682221194572     -0.05764090119730     -0.06315964653493
  N   1.22886061720195     -1.10094084157938      0.75972793596156
  C   0.75984387824186     -2.27656115325823      0.30959149504742
  C   0.24293687260211     -2.48171568911883     -0.95485376847947
  C   0.19690731493048     -1.39127093827372     -1.84894808809332
  C   -0.29609396508405     -1.42627167151694     -3.16811128831867
  C   -0.26811812971689     -0.26116334377120     -3.91345271329837
  N   0.19872303112634      0.91548531314261     -3.47117412563010
  C   0.67093055640838      0.97661032467658     -2.22740334240286
  N   1.14583039306438      2.13925785640976     -1.75404358896215
  N   0.68374256344455     -0.16896281684907     -1.38368359253516
  H   0.80780642470897     -3.10532079059536      1.02419237898952
  H   -0.12753684135244     -3.45293365173910     -1.28028000857313
  H   -0.68474756484891     -2.36202769773853     -3.56757857217877
  H   -0.64524705720949     -0.25972561754762     -4.94199928207430
