21
Coordinates from ORCA-job ./opt_b3lyp_cdz
  F   -1.12758094376017      4.14379026076310     -1.88920685374580
  C   -0.82179918806241      3.81576152449813     -0.60747430508290
  F   0.46200152826869      4.17018886515793     -0.40077277707032
  F   -1.59035063507723      4.61556152304777      0.17586034326069
  C   -1.04622548733864      2.36137875360697     -0.32542344818946
  C   -0.00830273234298      1.53967119714554      0.09423133898570
  N   -0.12536767159279      0.23920808837647      0.36556388783887
  C   -1.32764530323622     -0.32946324384897      0.22738738672621
  N   -1.47135418108879     -1.63208506139475      0.49387839758204
  C   -2.69093698100624     -2.14849865461734      0.33958223610294
  N   -3.80416263534611     -1.53795092110599     -0.04942305368165
  C   -3.71099481736276     -0.22754679117843     -0.32887242612290
  N   -4.80086427534252      0.43320001371642     -0.72413002659801
  C   -4.68001164503913      1.73625228927267     -0.99545987510838
  C   -3.50159198639234      2.46029007308012     -0.89742797316586
  C   -2.33761263481931      1.79065431881137     -0.48368448183984
  N   -2.45574128221886      0.42781228612953     -0.19817401429787
  H   0.99171710006428      1.96382646610630      0.22047964367521
  H   -2.78563089474841     -3.21744488381106      0.56356158416266
  H   -5.59938533457221      2.23827456768487     -1.31623858822728
  H   -3.46281999898587      3.52045932855943     -1.13139699520395
