22
Coordinates from ORCA-job ./opt_b3lyp_cdz
  C   5.55455632338228     -4.64846416339587     -4.32201652218771
  S   5.89211583811333     -3.64739676475591     -5.81058889851065
  C   5.35293631164108     -2.02665722083028     -5.36082821653619
  C   5.49674484668460     -1.02821030663220     -6.33912125582293
  C   5.10158682877510      0.28348058051116     -6.08374822464425
  N   5.23306281097849      1.26098892791775     -7.01700213436704
  C   4.82290218419565      2.46594436076720     -6.65801486143473
  N   4.29070665557377      2.85904838740824     -5.49000718416000
  C   4.14931677442625      1.91930246557892     -4.55336465433317
  N   3.62798814476683      2.21754059384001     -3.35731311808600
  C   3.52483235439172      1.21121617190281     -2.48126598026108
  N   3.87153331989893     -0.05981413209327     -2.63299736832457
  C   4.40216250997829     -0.38946502542256     -3.83510398081079
  C   4.80619057523468     -1.70014367329746     -4.11454179945984
  N   4.55512259031592      0.58897628615221     -4.82570859506563
  H   5.88394188089936     -5.66455058572840     -4.58107182451785
  H   4.48039899441281     -4.66492952729441     -4.08808054162457
  H   6.13449227081372     -4.28883853863550     -3.45993997415225
  H   5.91603795908364     -1.23092770254388     -7.32351570029052
  H   4.93033248761722      3.25341116597070     -7.41346420735560
  H   3.09557841555524      1.47617135336564     -1.50760260247747
  H   4.66516992326082     -2.41796265278545     -3.31108235557706
