20
Coordinates from ORCA-job ./opt_b3lyp_cdz
  C   0.89404865390096    -10.59315627343354      0.25753360510113
  C   -0.45532196556098    -10.69665879055597     -0.05589997122749
  C   -1.28584159531188     -9.56212915038572     -0.05152745496495
  N   -2.59604368358501     -9.68788775062959     -0.36007489763790
  C   -3.34641053850290     -8.58799582171612     -0.34360999427399
  C   -2.87476142519298     -7.32079868141495     -0.03115247860647
  C   -1.51317059476559     -7.16234039406131      0.29390597794766
  C   -0.89767015832309     -5.94055842485906      0.63021013980649
  C   0.45752752470330     -5.93245388060823      0.92905483196849
  N   1.23658658092981     -7.01229763975717      0.92228687808277
  C   0.66942892460879     -8.19715530618668      0.60269046133161
  C   1.45364506842382     -9.36397807854356      0.58278933088461
  N   -0.70683199881806     -8.31151670060167      0.28164243454897
  H   1.52165077976002    -11.48761148516896      0.24809683486762
  H   -0.93302415815228    -11.63934456958188     -0.31602123382694
  H   -4.40305442002654     -8.72982558936115     -0.59906548869881
  H   -3.52264068048028     -6.44536579177296     -0.02922814868345
  H   -1.50041544672590     -5.03361765809051      0.64722787693518
  H   0.95298097789876     -4.99075160641293      1.19286170499312
  H   2.50516815522001     -9.23908640685801      0.83423959145227
