24
Coordinates from ORCA-job ./opt_b3lyp_cdz
  C   2.65788653271483      0.96907511202278     -0.06386122592548
  O   2.65992448907462      0.14865537459965     -1.23793188319706
  C   3.54964263988765     -0.84641458591873     -1.33776750753851
  C   4.50329205772649     -1.15706028230313     -0.35805669301929
  C   5.39039471223614     -2.21723772035315     -0.55522316514072
  N   6.31868429290409     -2.53139920385675      0.38192236201520
  C   7.10748573896344     -3.55540704437662      0.08948154836015
  N   7.11908577492787     -4.32834960686471     -1.00505296240585
  C   6.21231713316958     -4.03741138227974     -1.94316563784429
  N   6.14863964252579     -4.75104421185576     -3.06478465088579
  C   5.20320029884773     -4.38273784006471     -3.94929349468349
  N   4.31942296528723     -3.40558246783105     -3.86605776751457
  C   4.36238874417799     -2.65969326823333     -2.72906003862826
  C   3.48657939065995     -1.60405169819752     -2.52118595232850
  N   5.31378441263822     -2.96028173809628     -1.73820167937734
  C   5.15174909787380     -5.17654819593114     -5.16746587923892
  N   5.10685157247980     -5.80910422915543     -6.14099399617402
  C   8.10138023474175     -3.88777597959717      1.09893597910705
  N   8.89202019836350     -4.14803304240971      1.90949219528562
  H   1.85353102610119      1.69806101886487     -0.21845097985058
  H   3.61899929884110      1.49616668961739      0.05213268694561
  H   2.44746662823165      0.37000610892684      0.83716897935195
  H   4.60687860562484     -0.61431074496226      0.57748669604319
  H   2.75411451200080     -1.37921106174384     -3.29354693335621
