24
Coordinates from ORCA-job opt_b3lyp_cdz
  C   6.45801755470114     -0.72180245394276      0.31124720803255
  N   7.08509593556402      0.43507838475549      0.53144791566181
  C   6.34653649738799      1.54597558361686      0.44652459547955
  N   6.90465891951371      2.74261595910788      0.65462853104293
  C   6.10414015629263      3.80507225809913      0.55241269147520
  N   4.80635247669861      3.82943924923132      0.26684753137034
  C   4.21706171585297      2.64205469007007      0.05261828239957
  C   2.84479288086205      2.53133054672747     -0.25892438417114
  C   2.28211660916602      1.27715904178952     -0.47210307148081
  C   3.03408354280341      0.10991875231001     -0.38806291046367
  C   4.40942756694711      0.18092938870596     -0.07844322180147
  N   5.17729451509526     -0.91669644095215      0.01429203450726
  N   4.96468651400881      1.45457118200971      0.13427672259574
  C   2.39789514750365     -1.23890558542106     -0.62382062899923
  F   2.48307965349197     -2.04118018389853      0.45491147550368
  F   1.07965803802627     -1.09409704578190     -0.90737807868270
  F   2.95448145937082     -1.89391115259113     -1.66090667545497
  C   2.00532902898748      3.78252667081817     -0.35620742834648
  F   0.72280312808010      3.46586365693246     -0.66276672777969
  F   1.97542514755185      4.47082121503414      0.80132531299709
  F   2.44423159740681      4.62092179950178     -1.31480177185023
  H   1.22240914384208      1.20713495306087     -0.71162330084111
  H   7.07637238509479     -1.62330322031425      0.38441558314946
  H   6.57588807975045      4.77866635713093      0.72558261965632
