26
Coordinates from ORCA-job ./opt_b3lyp_cdz
  F   -5.76822635543995      3.82950392724614     -4.47944255866170
  C   -5.76051491041334      2.68993601217703     -5.20080025881165
  F   -6.82383095180517      2.74576497441247     -6.03994997877284
  F   -4.65190833616005      2.71023956151902     -5.96866944249960
  C   -5.83770926144469      1.45887349146168     -4.33345271102692
  C   -6.89654056114939      0.56511434773937     -4.45480371948544
  C   -6.99253500254740     -0.57782139867282     -3.66785773647180
  C   -5.99210430224666     -0.85595666231385     -2.70987984747657
  N   -6.03997410435362     -1.94116361797787     -1.93053428325347
  C   -5.03775688888689     -2.09791271135851     -1.06226341806531
  S   -5.06335702184387     -3.51664814135539     -0.01555056747155
  N   -3.98406005784155     -1.29602152021180     -0.87556700883090
  C   -3.91080146296750     -0.20731816022979     -1.63857962411216
  N   -2.88881459784177      0.63593477485968     -1.50677016065091
  C   -2.88010905939594      1.70813474929307     -2.30582656750210
  S   -1.49671743232906      2.77616806618746     -2.07207063609587
  N   -3.78110780734131      2.04359052465344     -3.23244053502446
  C   -4.81840665700088      1.21437096265605     -3.38628948253096
  N   -4.92843110673187      0.05587290837127     -2.59835600098572
  C   -8.15288637800654     -1.52840713231576     -3.82192744984534
  F   -9.00041080025826     -1.08956791805316     -4.78470823045120
  F   -7.75935954179425     -2.76798853410506     -4.17923156240583
  F   -8.87370120975643     -1.64906733984788     -2.68834946604599
  H   -7.67477297792381      0.76661908648391     -5.18902980101079
  H   -6.22663356087957     -3.99662728308272     -0.52718532764622
  H   -1.88986965364024      3.65733703246166     -3.02823362486548
