25
Coordinates from ORCA-job opt_b3lyp_cdz
  S   3.67671309742310     -3.59752633081856     -2.48363310608125
  C   3.92526542057523     -3.38703052775025     -0.75157847131100
  N   5.20056033289882     -3.44782824400345     -0.36461793932790
  C   5.43973047064385     -3.29372498627697      0.94082455631127
  C   6.74740507046277     -3.33813442959798      1.47557024098684
  C   6.94301145180009     -3.17147324078525      2.84167821863178
  C   5.88304236047231     -2.95911592927458      3.71867473169630
  C   4.56351920872039     -2.90886834478117      3.22321284070120
  N   3.50739655301581     -2.70726221970004      4.02713696823418
  C   2.31386495059408     -2.68037569266856      3.44304871137102
  N   2.02609126342341     -2.82910441979068      2.14869775933985
  C   3.05767456494083     -3.03144955717871      1.32263035620924
  N   2.84653561695145     -3.18853334174318      0.01627230523749
  N   4.37929815888454     -3.07871768349828      1.84007098773685
  C   6.12626936096117     -2.78183603332889      5.19765360325932
  F   5.51505789706036     -3.72869166152665      5.93608648889694
  F   7.45279514743204     -2.86276761377010      5.46949266126983
  F   5.70490700992225     -1.58387098702298      5.64788247780385
  C   7.91649809090124     -3.56737138578308      0.54900021845537
  F   9.07801770828710     -3.57906353797402      1.24872036647659
  F   7.83411391302285     -4.74647790263921     -0.09790020163310
  F   8.02823740343153     -2.60177063147407     -0.38411333406627
  H   7.95652243995207     -3.20831178702700      3.23749142885740
  H   1.45825664244443     -2.51539069499274      4.10724852897120
  H   2.32715063277822     -3.46687107359358     -2.40291809302701
