40
Coordinates from ORCA-job ./opt_b3lyp_cdz
  C   5.72512160020355     -1.61899964697020     -0.74467851762860
  N   4.82026885198762     -0.73900572048956     -1.46884511879915
  C   3.51109792620881     -0.52845845122368     -0.86624114793188
  C   5.17618062962274     -0.14916819607339     -2.63616092351039
  N   6.41230905426358     -0.40647111651053     -3.11286229864425
  C   6.77040439053324      0.16686134294597     -4.25506631274980
  N   7.97622324468294     -0.05613067189677     -4.76286802554617
  C   8.29443640817115      0.54897473095469     -5.92648516714445
  N   7.48669734387053      1.37317751373792     -6.63180281123530
  C   6.27947052026759      1.61021206522834     -6.14441424212173
  C   5.35612449757085      2.45932787183135     -6.80665943973824
  C   4.09854930267470      2.67737240936401     -6.25451662113995
  C   3.70005267351796      2.08824593167979     -5.05955388232749
  C   4.59156244391115      1.23207291841547     -4.36366683939169
  N   4.25643613273604      0.64966291972309     -3.22365396896833
  N   5.85886161822970      1.02333343129673     -4.93724133948522
  C   2.33452935465732      2.34239730811327     -4.48777598835900
  F   2.37554998236447      2.91442475927592     -3.26174223249031
  F   1.62595193481465      3.18188011429951     -5.28489267487797
  F   1.59842697225367      1.21348812508421     -4.36214436042417
  C   5.75822857635597      3.10993278377059     -8.09933268407767
  F   4.75266172122504      3.88163254985539     -8.58473194381342
  F   6.83745115244903      3.91648549095420     -7.96913922072079
  F   6.06112822133157      2.21398876208147     -9.06762577640106
  N   9.52792523556685      0.31425699420044     -6.43708537003530
  C   9.97381880438621      0.91909754112966     -7.68476922054616
  C   10.48506613259000     -0.55356057815420     -5.76748041834706
  H   5.91305218895687     -1.21796099835131      0.26715343900165
  H   6.67006333409403     -1.69926302346621     -1.29034119878595
  H   5.27212608234740     -2.62049738940101     -0.63636414962800
  H   3.62632405563505     -0.09125348127836      0.14137293445725
  H   2.98488939723738     -1.49381916559654     -0.76198276093215
  H   2.92060479568705      0.14577371694182     -1.49371911774830
  H   3.40185396599534      3.33191598951460     -6.77575128597570
  H   9.17730571117973      1.54679219606320     -8.09532517471350
  H   10.23691812250811      0.13101435579314     -8.41233384304568
  H   10.87414482008067      1.53299116858732     -7.50510418549584
  H   10.03719305122461     -0.95298115449132     -4.85259659216821
  H   11.39917283194650      0.01343937325598     -5.51628931320595
  H   10.77167691666003     -1.38517277019604     -6.43533220530361
