32
Coordinates from ORCA-job ./opt_b3lyp_cdz
  C   3.36766262386612      0.72793287049599     -8.19773535539288
  N   3.09252677099944      0.80858765708544     -6.77099810273440
  C   1.96283101683787      1.64507829128125     -6.38724651259580
  C   3.84160894203472      0.14963169854406     -5.85535887217926
  N   4.86985492847339     -0.60022981362464     -6.30704632358918
  C   5.60210273284009     -1.24570925518342     -5.39926925794643
  C   6.70271718621539     -2.05611185722087     -5.78938356915335
  C   7.02837138204896     -2.17282852503350     -7.25264128903576
  C   7.42749048495934     -2.70381503585686     -4.80252158237763
  C   7.12457644584958     -2.59577423036188     -3.43699727059208
  C   6.04420811521324     -1.80173954148571     -3.03053598436582
  N   5.70396999570671     -1.65823053838952     -1.73269657679355
  C   4.66659143970944     -0.88178611920440     -1.49624385220220
  Cl  4.23396498116458     -0.70291476925942      0.19284059914978
  N   3.89724646208734     -0.21279826505491     -2.34530900093322
  C   4.20660296082816     -0.33229602344742     -3.64443205398991
  N   3.49170068596110      0.30077718779867     -4.55539329442622
  N   5.30834423494014     -1.14458022598133     -4.02996108155374
  C   7.94560038390929     -3.32167088521645     -2.40324386732829
  F   7.21835327751093     -4.20030348665816     -1.68334513465333
  F   8.93878228173190     -4.03346374587759     -2.99996353719510
  F   8.54080041822104     -2.48468249266587     -1.52891206145641
  H   2.48655239253503      0.32739530049664     -8.72931750041522
  H   4.22828321502092      0.07573494828463     -8.37088846023177
  H   3.57969927307488      1.73477406344898     -8.59878140476676
  H   2.13026438243902      2.68209905885363     -6.72759507047500
  H   1.84743531077645      1.62840008337015     -5.29961938306098
  H   1.04020419730748      1.27195557983275     -6.86541156704390
  H   7.24321527368137     -1.18518248286376     -7.69301223661868
  H   6.17727704915485     -2.58626017272610     -7.81872904370695
  H   7.90137849211990     -2.82350157706262     -7.40656312562822
  H   8.27366266278158     -3.32781769631956     -5.09315822670869
