20
Coordinates from ORCA-job ./opt_b3lyp_cdz
  S   6.22141239774504     -4.14476234893322      0.64686749349890
  C   6.22797854608552     -2.39440811821313      0.38431129987181
  N   7.41184381345489     -1.81456138121183      0.13089413335460
  C   7.40299016726423     -0.49597199023248     -0.06493314895394
  N   8.53712708512365      0.15572407580401     -0.32210625049461
  C   8.44184420417853      1.48190137539797     -0.50699079231523
  S   9.93825210668536      2.36279611023000     -0.84982603832109
  N   7.35264376028776      2.24220231479785     -0.46734637126595
  C   6.19373934789741      1.60661688974617     -0.20901783866930
  C   4.97884531903214      2.30215494010828     -0.14187868253741
  C   3.80575380263185      1.60288934892875      0.12800657674879
  Cl  2.29948337829927      2.48170178313127      0.20886664146240
  C   3.79336377864535      0.22640541112829      0.33560111070376
  C   4.99684387756970     -0.48908049159615      0.27299600814483
  N   5.03187478489829     -1.82129767042367      0.46720974972218
  N   6.17920101724940      0.21808286781354      0.00068923001342
  H   7.56211142797399     -4.27321067439018      0.47552299023335
  H   10.71839232284179      1.25299965096497     -0.79452158406947
  H   5.00016711891634      3.37663599223123     -0.30556827785362
  H   2.88346174321948     -0.32962808528188      0.54695375072647
