26
Coordinates from ORCA-job ./opt_b3lyp_cdz
  C   7.79984362250153      2.44291815496163     -0.69000245509638
  S   7.89713793292772      4.21340152481585     -1.13334633828505
  C   6.28581481510521      4.78406482991095     -0.69426904528864
  N   6.09578399316044      6.08181481130056     -0.92681122695877
  C   4.88549918294362      6.57389895630083     -0.61167306227848
  C   4.56684649544973      7.92328774605663     -0.81087752231694
  C   3.29969856619961      8.37287065103473     -0.46592663760164
  F   3.00739774437257      9.66512621835737     -0.66108847697422
  C   2.32061185863342      7.54864058321178      0.07149038406918
  C   2.61326452529403      6.19493824930944      0.28100050871581
  N   1.70543814489280      5.34965008094851      0.79832443002280
  C   2.09492805351559      4.08528330354137      0.95321266465335
  S   0.84962059882281      3.03823108592476      1.63716406957965
  C   1.71098843671331      1.42754347747600      1.70305123425053
  N   3.28759845608122      3.54755105124758      0.65527539882751
  C   4.20625561087787      4.36500800582528      0.14033174777138
  N   5.41452517337979      3.90216662243579     -0.18097627893555
  N   3.89709109079035      5.73147785278235     -0.06655999210904
  H   8.78485424777986      2.02449866079725     -0.94274294844911
  H   7.01279621249540      1.94420976690908     -1.27006541095157
  H   7.59900096921257      2.32579308385115      0.38264866906137
  H   5.32307884902847      8.58200486620951     -1.23116578853577
  H   1.33224750509064      7.91648644891873      0.33657371408056
  H   2.01045019331900      1.11041567757531      0.69589276787301
  H   0.97960252852781      0.72280633108400      2.12450459448925
  H   2.59602519288328      1.49118195921485      2.34903500038731
