19
Coordinates from ORCA-job ./opt_b3lyp_cdz
  C   0.95084447238030      3.32739727231830      9.28177611314574
  C   -0.37575127732084      3.23710470237718      9.62276075868408
  C   -1.34994416168072      3.02772697106437      8.60567596098672
  N   -2.64112418185588      2.93488943602350      8.89366287094912
  C   -3.49766274849339      2.73574458986400      7.86514315923587
  C   -3.11774823893230      2.62435468458933      6.55078270158279
  C   -1.73918174041155      2.71935380702772      6.20744624516886
  N   -1.33128875355361      2.61698911825990      4.94973871291295
  C   -0.00274141229506      2.71920817242444      4.71372903175628
  C   0.94395204535346      2.92090005733694      5.68707564644029
  C   0.53961574089939      3.03525024948237      7.04750478316430
  N   1.42287732012526      3.23044710791366      8.01726798890866
  N   -0.84984007987864      2.92744805501599      7.28688354717759
  H   1.70937247486040      3.48829819211694     10.05478581457512
  H   -0.73528831966244      3.31780152033500     10.64696108031596
  H   -4.55462736533824      2.66438428579150      8.14178862555622
  H   -3.82310506208709      2.46416063346361      5.73740899412862
  H   0.29567022919869      2.62970422440818      3.66409339738025
  H   2.00883105869228      3.00040692018701      5.47617456793056
