28
Coordinates from ORCA-job opt_b3lyp_cdz
  S   3.19605906914200      7.41001884567278      0.35963405339583
  C   1.80749131654883      6.55730028445305      1.19388629744536
  C   4.11798809061004      6.06058593988911     -0.34526589482164
  C   5.26351331469199      6.37462912543345     -1.06719146766454
  C   6.01378211501195      5.33007793841509     -1.63678045150040
  C   7.18713480825421      5.53880675688919     -2.38533651373704
  C   7.85772003137034      4.44538994189147     -2.90716546581026
  F   8.97582877285213      4.65599367347529     -3.61961843532311
  C   7.42215665913418      3.14383153891332     -2.72410983895886
  C   6.25106427651995      2.91181991482022     -1.97867345095421
  C   5.72861472011768      1.62856141155502     -1.73729800153140
  C   4.56409412230849      1.51039719613952     -0.98731989973212
  N   3.90125752464279      2.55372419988887     -0.47485155576882
  C   4.36645567173676      3.78885034864106     -0.68263776205126
  N   3.68409789944623      4.81082315956673     -0.15914700636405
  N   5.55503640411464      4.01225323968871     -1.43982422036809
  H   1.83950444087945      6.78889507469845      2.26762263104483
  H   1.94055171844628      5.47919177092224      1.02434356921916
  H   0.86070815151331      6.90554639745524      0.75809812014651
  H   5.59889035016080      7.40117271316812     -1.20659835209587
  H   7.55185116390708      6.55148450338988     -2.54468085588384
  H   7.96851471738010      2.30249856564533     -3.14548200870584
  H   6.24928526012764      0.76276366367249     -2.14344864661310
  S   3.91563263802413     -0.11394617321716     -0.68986723880999
  C   2.43158891686211      0.25959575815063      0.30814645426594
  H   2.71422646087545      0.77185278063713      1.23660543091334
  H   1.73532212363040      0.88757780433307     -0.26210697379750
  H   1.97748519168941     -0.71693420819231      0.52930109705871
