31
Coordinates from ORCA-job ./opt_b3lyp_cdz
  C   2.31148217102349      1.52965523658628      5.46039660421427
  N   2.47759100060560      0.57683289320722      4.37331314683362
  C   1.62558065455681     -0.60650269849462      4.37459409480605
  C   3.38285910128206      0.80539904043349      3.38164741681758
  C   4.18734389779281      1.96384286317425      3.37730100227206
  C   5.10542119862704      2.15940985042001      2.34636264434756
  C   5.97074832889964      3.29560278796740      2.24477208630269
  C   6.85748362777727      3.40905483065943      1.17913012499676
  C   6.92547341446996      2.43380864681166      0.19683554688092
  C   6.09169779413889      1.30360875861649      0.26219355961688
  C   6.10207824876613      0.27134374837608     -0.69700855281430
  C   5.23852052874406     -0.79621977729827     -0.53742580482770
  N   4.37829844361879     -0.92961918164430      0.47451691127296
  C   4.33529196353502      0.03105150140167      1.41293735075795
  N   3.47344249761978     -0.12263417233081      2.41039303443931
  N   5.19153543746164      1.17863228825726      1.33540023833714
  C   5.92106317651143      4.36389454854668      3.29057339486786
  F   6.80233297516130      5.35760610458170      3.03786327327265
  F   4.69531270004330      4.95036251528784      3.39520630051481
  F   6.20740465095443      3.90003227408329      4.53955186191952
  H   1.55978554598873      1.13874286146336      6.15807762601287
  H   1.96457697759606      2.51309538252710      5.09723043593478
  H   3.25113124639279      1.68023791608560      6.01902622910661
  H   1.78727250568711     -1.19645890055050      5.29388656363582
  H   1.87229360731375     -1.21838866647802      3.50094653546400
  H   0.56065477184452     -0.31666999769392      4.33010803814064
  H   4.11440940779144      2.71459305724427      4.15352899554523
  H   7.50663015342191      4.28326243336954      1.12341108611069
  H   7.61632042772565      2.51392914752895     -0.64101107827785
  H   6.78969454034989      0.34218616427274     -1.53869439991570
  H   5.23082900429937     -1.60922145641283     -1.27307426658697
