38
Coordinates from ORCA-job ./opt_b3lyp_cdz
  C   0.58065772438790     -7.19107118112369      6.62865069272023
  C   1.52827913982759     -8.00862968339366      7.26325523893866
  C   2.40234926134858     -8.78398456438514      6.50288902733299
  C   2.31617326421619     -8.73081184228297      5.10698934532263
  C   1.35798174426468     -7.90394720430653      4.47474164348060
  C   0.47723576283344     -7.12269582313103      5.23564342490670
  N   1.50250361859605     -8.05279660524874      3.05658678659866
  C   2.56274922292317     -8.98250251225313      2.81954542147012
  C   3.10536328698778     -9.47510370096448      1.62560227188916
  C   4.15757091186212    -10.39235450702717      1.71186396857985
  C   4.66756131975178    -10.81817947296345      2.94764397147061
  C   4.12526176454494    -10.32595616101090      4.13423513530170
  C   3.07176538018423     -9.40712564830951      4.06949708915053
  C   0.74912581835984     -7.41024972899229      2.09007585801688
  N   -0.20253149930933     -6.56966945605033      2.53619456738356
  C   -0.94558389528876     -5.93442634853610      1.63925447279903
  N   -1.90481647206277     -5.08853763012459      2.03299503773929
  C   -2.60869332516206     -4.48781161525627      1.06459157118079
  N   -2.48590712219987     -4.61635515388710     -0.24859413522597
  C   -1.52324597448880     -5.46647878455358     -0.67588706786897
  C   -1.28754334659164     -5.69528386198587     -2.03619670458709
  C   -0.28499247253809     -6.58006377164014     -2.43005952494260
  C   0.49680208733077     -7.24955581364779     -1.49533699571112
  C   0.28921802582413     -7.04488702256059     -0.11983984497221
  N   1.02607010188169     -7.67471388641960      0.81024317221352
  N   -0.72485178655483     -6.15046920288741      0.25706223690073
  H   -0.10058095446369     -6.58658403228678      7.23207568878966
  H   1.58037996763281     -8.03689742021964      8.35395656480048
  H   3.14463022001389     -9.42459056562103      6.98431223536542
  H   -0.25928067071960     -6.48685476785848      4.75670395960787
  H   2.71757537272651     -9.15174273977654      0.66659761009917
  H   4.58867618848190    -10.78328616787988      0.78713822939513
  H   5.49025898079305    -11.53598632372391      2.97925829227752
  H   4.51376629627283    -10.64988726490228      5.10233299897622
  H   -3.38929793107527     -3.79884342327703      1.40820845394860
  H   -1.91532815325416     -5.15704976512478     -2.74388061139025
  H   -0.10905737253878     -6.75171840663145     -3.49469712490032
  H   1.28440551520140     -7.94416793975448     -1.78200295705842
