46
Coordinates from ORCA-job ./opt_b3lyp_cdz
  C   -2.16660716908515     -7.31737984774542     -2.57315047707458
  C   -1.18862024131887     -6.32841831643820     -3.12636674995334
  C   -1.27098340411208     -5.68910833833397     -4.33292321120455
  C   -0.15890561289170     -4.79444639415984     -4.45793076772112
  C   0.59995592237719     -4.87169483428011     -3.32218608456676
  C   1.87372690010662     -4.13359126987676     -3.05016607366849
  N   -0.02515435221592     -5.83017078396528     -2.47352093839313
  C   0.42640247113925     -6.21579444216979     -1.21491591828724
  N   -0.09351213870792     -7.32999962653011     -0.69590693210898
  C   0.33369435882830     -7.69355030811488      0.52301164866304
  C   -0.15815886686264     -8.84135124439938      1.16287201131990
  C   0.32738430881421     -9.17928067140954      2.42289766572737
  Cl  -0.29477430496951    -10.61160190088570      3.20753662914348
  C   1.29044406035108     -8.41981676983654      3.08117401107871
  C   1.79722993087769     -7.26740689515262      2.46152222031370
  N   2.73316990842264     -6.50644969765523      3.04914606715314
  C   3.14192521508211     -5.42379353707345      2.38437120331698
  N   2.71569648651422     -5.02377637500007      1.17415631420632
  C   1.80363703173788     -5.77042236739178      0.55915769342390
  N   1.34710756768075     -5.42308862738426     -0.64024720506008
  N   1.30251414933519     -6.93149614402433      1.19262660525387
  N   4.10240424378936     -4.62587998582389      2.99865890773372
  C   4.47390663408539     -4.68313399067710      4.37247113983802
  C   3.88155264778529     -5.57233348626008      5.42080927989994
  C   5.43924027521509     -3.73273895594675      4.56229022702219
  C   5.69373900949187     -3.07758280425967      3.31383574058525
  C   4.87500901265727     -3.61443103597672      2.35827298961847
  C   4.84051751236264     -3.24735204433384      0.90729730999765
  H   -3.00842011396088     -7.38666878769729     -3.27934581428369
  H   -2.56341504502984     -7.01643451325688     -1.59115287205039
  H   -1.73062943843678     -8.31841087665345     -2.44243795318938
  H   -2.06707439091257     -5.84471849997991     -5.05823575720685
  H   0.07094510312426     -4.15548560007090     -5.30811284354823
  H   2.12855113949867     -3.56255073517361     -3.95640299667678
  H   2.71253466392751     -4.80802656032990     -2.81854885643826
  H   1.79057375245837     -3.44041951215489     -2.20136295463642
  H   -0.90731235785229     -9.43482036041740      0.64522637584826
  H   1.67376659103341     -8.68377564240548      4.06340024917557
  H   2.78634437163757     -5.47936790043693      5.48584622559679
  H   4.31147573021595     -5.27804124073735      6.39072628503609
  H   4.09655450278190     -6.63651686366368      5.24626467904381
  H   5.91442453940869     -3.52142251556077      5.51810835236215
  H   6.41868660643949     -2.28765296588188      3.12841480577225
  H   5.63923901445133     -2.51033165840415      0.73077311147502
  H   3.87836284553472     -2.81316422739965      0.60118964081592
  H   5.01433092918190     -4.11146084466592      0.24767701664697
