62
Coordinates from ORCA-job ./opt_b3lyp_cdz
  Cl  2.55172841365792      2.12577833925232      2.93586236774972
  C   4.12410067085465      2.37170297007591      2.20269550807593
  C   4.22825177116749      3.24398135585770      1.12420414953157
  C   5.48357776444396      3.45021809068170      0.52729722026915
  N   5.63322525650061      4.27688209919957     -0.51427488129817
  C   6.87161871720692      4.40098122885680     -1.01281858228877
  N   7.98259272278530      3.77436761025819     -0.57918302866555
  C   7.85811322989055      2.94751817687870      0.45358500724943
  N   8.91754266288672      2.30438482117241      0.93292079742227
  C   8.72557630436336      1.48548639993681      1.98530303067479
  N   7.56489267696160      1.23833841899607      2.60924225086584
  C   6.48407590436490      1.87627378685518      2.14502614836639
  C   5.21747505489282      1.68761948656009      2.72365221623466
  N   6.58524639521481      2.75605708021740      1.05452029316676
  N   9.84055334268279      0.83397718427221      2.46935723012271
  C   11.11550616209942      0.91298815606933      1.80470488623475
  C   11.25610105429219      0.55708640861896      0.45654036226901
  C   12.51401429161769      0.60315644461955     -0.14693874489503
  C   13.63939356083879      0.99375897767532      0.58640403638118
  C   13.49804305137285      1.34232347891536      1.93255922819532
  C   12.24111693017130      1.30508611308994      2.54107018072740
  C   9.77869715527235      0.03933963423215      3.66898309920335
  C   10.17795825389942     -1.30218744993616      3.61828193386537
  C   10.17005992305412     -2.07903621522765      4.77955472153372
  C   9.76019223358134     -1.52413466784236      5.99533261117220
  C   9.36193759441973     -0.18379134517051      6.04367135530671
  C   9.37371351233671      0.59949068971355      4.88796166479204
  N   7.02647472514947      5.25864673219121     -2.08164895210213
  C   8.27594036398988      5.37511848768893     -2.78786032609630
  C   8.90063091728457      4.25371496699161     -3.35018199540561
  C   10.08920177968222      4.40623482535320     -4.06620271000748
  C   10.65855669187283      5.67274719043656     -4.23537107863769
  C   10.03060921576345      6.79070461823145     -3.67905318226386
  C   8.84464815012458      6.64452886915081     -2.95541190420068
  C   5.93756147552452      6.08100680611039     -2.54241904279026
  C   5.31004010541666      6.99645209001627     -1.68693796793945
  C   4.28367255249401      7.80992102365841     -2.17084158140554
  C   3.88197573577335      7.72367003911026     -3.50825347597558
  C   4.51385833005621      6.81445950891916     -4.36154490190204
  C   5.53721448136864      5.99309684493876     -3.88169858558333
  H   3.37589454182994      3.77934281632552      0.71414158229628
  H   5.13948086319810      1.00476323667127      3.56561234603862
  H   10.37917148150937      0.25670863493502     -0.11642753901354
  H   12.61437157917180      0.32734689978840     -1.19938562433590
  H   14.62204477865303      1.02547582529109      0.11014322427268
  H   14.36923140397619      1.65120336209745      2.51511108558373
  H   12.12775333473591      1.57637486426988      3.59217915688196
  H   10.49830805959281     -1.73099480843097      2.66698804329677
  H   10.48199565354258     -3.12498223150701      4.73019316823718
  H   9.75266356371256     -2.13250465210533      6.90268355326701
  H   9.04366577421211      0.25965660420241      6.99021810603542
  H   9.06289512633097      1.64386285650340      4.92387145058521
  H   8.45974405890578      3.26630883287648     -3.21534107843594
  H   10.57160088921754      3.52634244610886     -4.49848700468856
  H   11.58736567679645      5.78710270434543     -4.79899242389739
  H   10.46690155559924      7.78476908704243     -3.80245580408067
  H   8.35198866657999      7.51572341788204     -2.51999619778643
  H   5.62367280749367      7.06203806673576     -0.64484665699856
  H   3.79820639474313      8.52040004798982     -1.49746492603221
  H   3.08075715609938      8.36446107730109     -3.88360140673110
  H   4.20737383894433      6.73803105785382     -5.40747374666016
  H   6.03412365979434      5.28238057719626     -4.54460866585427
