58
Coordinates from ORCA-job ./opt_b3lyp_cdz
  Cl  7.08111151600356     -1.82286386758949     -3.82947393521851
  C   7.36908160769531     -0.39480938876930     -2.86352456353260
  C   6.73983290250100      0.79355922103612     -3.22240592717822
  C   6.96264088348482      1.94711615383032     -2.45488280993029
  N   6.38105142888968      3.11644714874173     -2.75732868312324
  C   6.65497932763891      4.15895989071542     -1.96606271992850
  N   7.46309750434188      4.14556134674241     -0.88989312855103
  C   8.05302884676808      2.99930816551717     -0.56740817420189
  N   8.86060686007406      2.93322897845092      0.48588034801091
  C   9.43289680603250      1.74857033841510      0.76949354605864
  N   9.26759167986284      0.61126178771853      0.08598358869466
  C   8.45792613149500      0.64922400529818     -0.98174135104648
  C   8.21862987449440     -0.49019517258045     -1.76528289787650
  N   7.82030226880080      1.84421830761122     -1.34886637684324
  N   10.26893134261699      1.71190266906241      1.87226891906874
  C   10.97611068206756      0.56558724565255      2.35592739023955
  C   11.02514566825485     -0.75352043954736      1.88632230254062
  C   11.82081716105935     -1.66942762508322      2.58184723296927
  C   12.55547113825902     -1.29783450255913      3.71787432869867
  C   12.50496915951710      0.01556354933275      4.18285922809961
  C   11.71447660869787      0.94733872135958      3.50076907483266
  C   11.46563444480413      2.35646469551879      3.73768523712019
  C   11.93822321187300      3.22967734690024      4.72400686105066
  C   11.52242514764678      4.56007711359562      4.70391020631232
  C   10.64351576255056      5.00605476944695      3.70521810887277
  C   10.15968867773560      4.15012901188743      2.71079929258475
  C   10.57933349991278      2.81333289564324      2.73411266666103
  N   6.05572297991412      5.36763493328474     -2.27640565380664
  C   5.16750408362207      5.61132692671970     -3.37173974213728
  C   4.68325455117971      4.75967240420886     -4.37332577856683
  C   3.81175382563896      5.29558593054265     -5.32675070954659
  C   3.42224563386843      6.64311472183820     -5.29814094145926
  C   3.90573900450378      7.48836641805026     -4.30035635750642
  C   4.77898623096959      6.97125611647455     -3.33682962759265
  C   5.43476897141070      7.58933527126962     -2.20034439865508
  C   5.40077375634840      8.89898366179691     -1.70811518934933
  C   6.14707267007018      9.21385689648574     -0.57358954085879
  C   6.91693576041778      8.22487978220577      0.05726484666575
  C   6.96479962252241      6.91066884410649     -0.41827505661965
  C   6.21355994471639      6.59756017723175     -1.55902447278969
  H   6.07669648085598      0.86573703273462     -4.08051777484313
  H   8.70897013083080     -1.41933879260680     -1.48679508027536
  H   10.46193599333673     -1.05129568291421      1.00980307772717
  H   11.86608710456600     -2.70073345787407      2.22398588829590
  H   13.16711994678137     -2.03863661747163      4.23758296466882
  H   13.07235447517590      0.31761118123564      5.06595167660809
  H   12.62242681281961      2.86938667458283      5.49544092359278
  H   11.88061817245405      5.25641953633628      5.46538404882267
  H   10.32290720867572      6.05046807332124      3.69671505452247
  H   9.48114037872304      4.50559118798357      1.94389853256910
  H   4.97748437864174      3.71726095669689     -4.40469802501270
  H   3.42823022123106      4.64000028220371     -6.11213286285972
  H   2.73978128753097      7.02927331463878     -6.05848798655049
  H   3.61022458827889      8.53936886592717     -4.26702073205460
  H   4.79707105339551      9.65919315867691     -2.20879775964110
  H   6.13304879703609     10.23061772246868     -0.17479189287242
  H   7.49878554805964      8.48021137592178      0.94603890424680
  H   7.56300024333838      6.15461073750704      0.07715590090850
