38
Coordinates from ORCA-job ./opt_b3lyp_cdz
  C   10.68035701209332     -1.78754446706592     -4.65553048963868
  N   10.35824890900225     -0.48391117480836     -5.21157637371896
  C   11.39981456941873      0.15203222353579     -6.00089618143386
  C   9.15000255098837      0.10890434740530     -5.00309104496942
  N   8.25996201037091     -0.56563394134642     -4.25183611859089
  C   7.07300231133606     -0.01180594087017     -4.02974820352302
  N   6.17317019406045     -0.66206713815753     -3.30659904517802
  C   5.04036404796012     -0.02733783179772     -2.93864468556461
  C   4.15530312778319     -0.70312274609869     -2.04845756719640
  C   3.04747804188152     -0.06392667313897     -1.53709374295973
  C   2.77561734793748      1.28629184369883     -1.87560918806708
  C   3.58189778205602      1.94767558764690     -2.77916372754215
  C   4.69759135479979      1.29456602291676     -3.37797218446085
  C   5.54061253005918      1.88003412177549     -4.38017524451435
  C   5.23650898386277      3.02845759534786     -5.18423279802066
  C   3.92888739315704      3.56479723919303     -5.36423968280241
  C   3.73142994321894      4.71863136181528     -6.09472118012954
  C   4.83834930172316      5.39181038909301     -6.67193509773485
  C   6.10691616975948      4.86462839012598     -6.57115406402051
  C   6.33484887489518      3.64281926404706     -5.87284545690683
  N   7.57532460413409      3.11276699554814     -5.91476950510515
  C   7.78622709344646      1.91765880686254     -5.38304007450287
  N   8.95584433845185      1.31530245697690     -5.56743203652145
  N   6.76713743086973      1.27804191651145     -4.59202194056104
  H   11.55686532238534     -1.71150855652609     -3.98641961744331
  H   10.93261178254815     -2.49541608177792     -5.46595468286015
  H   9.82128322232547     -2.16487624709659     -4.09233943870763
  H   12.30945591530887      0.29244808775435     -5.38898719603383
  H   11.04369770216778      1.12335674018969     -6.35763930342436
  H   11.66675318496804     -0.48421205021441     -6.86440271907857
  H   4.42082905769379     -1.72279377309231     -1.76554662508558
  H   2.39178804921151     -0.58777929259976     -0.83697772085911
  H   1.93885953408156      1.80910378829206     -1.40848768579968
  H   3.39165034998015      2.99741172601329     -2.99313315926669
  H   3.06693898855103      3.03171739285555     -4.96828913690853
  H   2.72037600777850      5.10283394679689     -6.24258323117977
  H   4.67627206001349      6.31680507829013     -7.23106707569468
  H   6.97002289971984      5.33010059190021     -7.04932677399441
