34
Coordinates from ORCA-job ./opt_b3lyp_cdz
  F   2.61375006060695     -0.60324451206298      0.88416620598317
  C   3.69170642513126      0.14384895143121      0.61720334686771
  C   3.49970803703467      1.44298925901018      0.16734985765977
  C   4.61999114829244      2.23445847781849     -0.11505705690426
  N   4.49537221996378      3.49841276959307     -0.55296626567861
  C   5.62832763152400      4.15724873960863     -0.78938470233203
  N   6.88611990920123      3.71113540429902     -0.64316941735166
  C   7.03778037311389      2.46292631642633     -0.21086524011993
  N   8.25382453726641      1.95241344262942     -0.04192943552480
  C   8.32788181553089      0.68589213945823      0.39722298425215
  N   7.32268061313750     -0.13720634189598      0.68981789882835
  C   6.08264562801946      0.35369382712610      0.52792421288913
  C   4.94719465905457     -0.41823929605592      0.80375712537783
  N   5.89455721091917      1.67057737674822      0.07202114056965
  N   9.60913847963080      0.18060942971905      0.56394118039725
  C   10.79312916394646      0.87919490774134      0.31373990780831
  C   11.83803516521886      0.04158307336070      0.59733277146725
  C   11.28694747648223     -1.21554453527713      1.03725433252604
  C   9.92268410037840     -1.10613913587519      1.00829148779515
  N   5.50147818535138      5.46271107516600     -1.24144721909947
  C   6.56207942220641      6.31988927641558     -1.54620159212838
  C   6.02865522595661      7.51218329200482     -1.95575971604091
  C   4.59317674751331      7.39252843870815     -1.90409464049874
  C   4.29509608821192      6.13081835673299     -1.46450961351991
  H   2.50838184224556      1.86715355951503      0.02687738454821
  H   5.07895273580469     -1.43814215435978      1.15703981078309
  H   10.74806046028114      1.90235698741091     -0.04081406682289
  H   12.89241460618654      0.29201982568666      0.50343277624016
  H   11.84408152680655     -2.09940870089137      1.34022201730024
  H   9.12736902110958     -1.79991847015612      1.25417613264444
  H   7.58247262898810      5.97262482062412     -1.43305373019692
  H   6.59756469415317      8.38691235006903     -2.26308058592827
  H   3.86687028130429      8.15929377636368     -2.16476671991702
  H   3.35576187942649      5.62239727290321     -1.28155057186002
