62
Coordinates from ORCA-job ./opt_b3lyp_cdz
  F   2.19380719097921      1.71344070693512      2.38629083868278
  C   3.43825159619782      1.97256203415505      1.95429415981841
  C   3.59433018523091      2.83397018366413      0.87775678940439
  C   4.88962015643989      3.11336171870625      0.41576925321369
  N   5.10156261266922      3.93309030877561     -0.62070399347763
  C   6.37651213116914      4.12998971877771     -0.98391514536619
  N   7.47053536167115      3.58381952045608     -0.41889571102264
  C   7.28584737111191      2.76494835117350      0.61128287053515
  N   8.32594469043031      2.19966708469841      1.21506408405318
  C   8.07321365198967      1.38386650659747      2.25673228156721
  N   6.87045868637812      1.06905771926307      2.75717853219937
  C   5.80695924551232      1.62786291117719      2.16738716482179
  C   4.50083655565768      1.36585200476624      2.60860522605105
  N   5.96976508120387      2.49869852160981      1.07473845202636
  N   9.16898953069723      0.81331331290982      2.87077869543709
  C   10.50064309423218      0.96803936305580      2.34547326911547
  C   10.80942349920246      0.60520896190473      1.02751560658886
  C   12.11979484358663      0.72679969176960      0.56186415847418
  C   13.13150883909362      1.20019741557371      1.40399195093638
  C   12.82272688563483      1.55561158195497      2.72003685358973
  C   11.51218400619540      1.44306786475770      3.19052793600669
  C   9.02866037676287      0.03153988042574      4.07201968144263
  C   9.51954570829094     -1.28013078420096      4.09208063687936
  C   9.43597963675116     -2.04110906788705      5.26087098545939
  C   8.85888484260070     -1.50045300032710      6.41356143776800
  C   8.36926522025685     -0.19000806208018      6.39138425520682
  C   8.45576191380263      0.57772344278361      5.22846596413045
  N   6.59353869394436      4.98041394532776     -2.04838771936185
  C   7.90267903411659      5.16721437698954     -2.61781897222151
  C   8.65718545781248      4.08015612403955     -3.07955171756916
  C   9.90475902269108      4.29906009990010     -3.66629382613495
  C   10.40571376527916      5.59765056129524     -3.80619788688287
  C   9.64891685369022      6.68096923585685     -3.35088532230874
  C   8.40275084769222      6.46871947678470     -2.75630420627722
  C   5.51204230669337      5.72337127679994     -2.64192941323489
  C   4.73702151209418      6.60729534321233     -1.87913414550398
  C   3.72078111157884      7.34548374323738     -2.48875995752909
  C   3.47526188703077      7.21544737457385     -3.86000104968960
  C   4.25381284979778      6.33807547017767     -4.62032207526353
  C   5.26796394192664      5.59171411817698     -4.01484293529602
  H   2.74795505313612      3.29855431463702      0.37773940144115
  H   4.35706794074958      0.69263594255888      3.45022085643180
  H   10.02099571368116      0.24023843891781      0.36973289148380
  H   12.35130619729070      0.44496812373706     -0.46807849268215
  H   14.15593227260842      1.29091058350958      1.03552420042157
  H   13.60382612687895      1.92886455610154      3.38661731702142
  H   11.26809399076853      1.71967047233911      4.21776557748775
  H   9.97046022200637     -1.69792050987243      3.19008248513001
  H   9.82062906347153     -3.06374343163978      5.26657722902394
  H   8.79234198705803     -2.09645532733704      7.32670013722606
  H   7.92017832913369      0.24252679841625      7.28869432971848
  H   8.07404988843643      1.59874683282604      5.20963347951358
  H   8.26960056288764      3.06792743951936     -2.96727530527761
  H   10.48797071602214      3.44564450584178     -4.02035178377395
  H   11.38141735940422      5.76371364262947     -4.26865622480983
  H   10.03036978166455      7.69976711093130     -3.45241139819012
  H   7.80958667488855      7.31282643158558     -2.40004791839898
  H   4.92896773038981      6.70714814028239     -0.81059251813417
  H   3.12002513406247      8.03175790169233     -1.88705452176508
  H   2.68139543510274      7.79761600954547     -4.33363279340613
  H   4.07010749579288      6.22781785912657     -5.69170469521392
  H   5.87898212651701      4.90632512693580     -4.60506925952575
