58
Coordinates from ORCA-job ./opt_b3lyp_cdz
  F   6.74137715638926     -1.60759138626821     -3.47882620276343
  C   6.97655350674217     -0.51109280401082     -2.74634355135627
  C   6.34211947936259      0.66959654684690     -3.10708365232624
  C   6.57925542942665      1.82412582193921     -2.34857863581065
  N   5.99748391474972      2.99497036550145     -2.64511069821636
  C   6.28718054379676      4.03867137826157     -1.86160352345576
  N   7.11116476947354      4.02614608979112     -0.79779957842596
  C   7.70206046925883      2.87885935136316     -0.48060691997829
  N   8.52467647061853      2.81531289143136      0.56125286368540
  C   9.09857266380529      1.63078630639618      0.84089885078098
  N   8.92149889059445      0.49123766177052      0.16474373133908
  C   8.09618553456163      0.52522347402905     -0.89109269377170
  C   7.84186201756097     -0.61467101556336     -1.66591551384371
  N   7.45469001369050      1.72167310785008     -1.25424856340460
  N   9.95070291985816      1.59679816785374      1.93180269914185
  C   10.66754091684238      0.45259762026574      2.40560153894861
  C   10.71152427790501     -0.86709220183805      1.93698751799210
  C   11.52029537588556     -1.78047129757817      2.62057167556321
  C   12.27270130650104     -1.40597063407804      3.74399699304618
  C   12.22713715101885     -0.09209222742857      4.20807679781303
  C   11.42372634320879      0.83726526904113      3.53781312329588
  C   11.17576925580240      2.24611526101882      3.77702657779994
  C   11.66183286003715      3.12142411610076      4.75496506307908
  C   11.24222011949472      4.45066326953486      4.74053002653459
  C   10.34599800398873      4.89338559248428      3.75582893433554
  C   9.84866137775292      4.03543873565749      2.76988715478715
  C   10.27247738669166      2.69982368102673      2.78722286711291
  N   5.68751176255782      5.24877233473619     -2.16691146997529
  C   4.77775276523293      5.49023832975100     -3.24471459063036
  C   4.26779578290309      4.63472862001966     -4.23020066190071
  C   3.37842941772581      5.16898793153990     -5.16789004611493
  C   2.99613382430674      6.51861168352729     -5.13951038092924
  C   3.50510047510997      7.36765694487668     -4.15777475384130
  C   4.39645882313576      6.85226419123389     -3.20998231131011
  C   5.07926968639171      7.47399335014316     -2.09159966156454
  C   5.06272746878711      8.78696482345016     -1.60728029999629
  C   5.83512727870125      9.10515485392078     -0.49134027204107
  C   6.61356514026702      8.11617495837952      0.12896921675929
  C   6.64419288341468      6.79868121199972     -0.33877356109343
  C   5.86651094390613      6.48214969949822     -1.46074588450313
  H   5.66872233020981      0.72241555248416     -3.95909369389399
  H   8.32557273587317     -1.55300214550902     -1.40565868153841
  H   10.13447377068939     -1.16690605295113      1.07019205759009
  H   11.56180809510191     -2.81220595332050      2.26343323381546
  H   12.89423633623703     -2.14489443026299      4.25458506761991
  H   12.80829808865150      0.21223545195789      5.08138790615496
  H   12.35916432572588      2.76350153744077      5.51568663967551
  H   11.61069598304404      5.14859656131276      5.49562277584260
  H   10.02226456928975      5.93687495576169      3.75187209996049
  H   9.15687433725157      4.38839267580958      2.01371696107335
  H   4.55668679700164      3.59080466972268     -4.26128476194672
  H   2.97479350782272      4.51049346293867     -5.94068676242080
  H   2.29930335614282      6.90338626503023     -5.88743865137796
  H   3.21533179813329      8.42027680296710     -4.12472939903776
  H   4.45233123855647      9.54716956099702     -2.09980604817224
  H   5.83503382362478     10.12451253780538     -0.09896033396944
  H   7.21605420775448      8.37420046004887      1.00310765269441
  H   7.24903029151540      6.04257601331219      0.14850173317750
