40
Coordinates from ORCA-job ./opt_b3lyp_cdz
  C   -7.90425526095394     -4.89386775225324      5.92107102134942
  C   -6.89310756432102     -4.02493863100687      5.49744941200239
  C   -6.27500262935684     -4.20829264325781      4.25920113032862
  C   -6.67491207620271     -5.26471357364818      3.43024090325582
  C   -7.68727270002768     -6.13621733418786      3.85178363794010
  C   -8.29728469591488     -5.95056117963630      5.09478056248940
  N   -6.02890717945048     -5.50758861197640      2.16501545098397
  C   -5.45729323283446     -6.81565981348683      1.96704749088576
  C   -5.83792254355748     -7.61869769017739      0.88379091057445
  C   -5.29658079780221     -8.89784496091026      0.74360322578158
  C   -4.38216983926962     -9.38791529281174      1.68200734908066
  C   -4.00855907111896     -8.58708790355168      2.76501285749878
  C   -4.54164736702236     -7.30374712965219      2.90809141483835
  C   -5.96135750692733     -4.53614324802905      1.19197203447965
  N   -5.24753264383756     -4.83279397156868      0.09322468050787
  C   -5.17325000168507     -3.90934715738437     -0.86054172531467
  N   -4.47479793555790     -4.16954350996414     -1.97417053795879
  C   -4.41350838589913     -3.22034261169194     -2.91499045473078
  C   -5.02018856109223     -1.97736248510812     -2.83147223963014
  C   -5.76288080832899     -1.67352016375455     -1.67515231532817
  C   -6.44316095335109     -0.46754498810969     -1.42250326564406
  C   -7.12662701698229     -0.33722061899540     -0.22421067886913
  N   -7.19586387276100     -1.27609338627827      0.72636796915580
  C   -6.55989125672867     -2.43634499184637      0.51412627073234
  N   -6.61585086934221     -3.38936673502928      1.43962517748139
  N   -5.83105070612150     -2.65931817681513     -0.68763591916612
  H   -8.38328958481966     -4.74755314154912      6.89194564717724
  H   -6.57858942698120     -3.19656713896700      6.13661480152539
  H   -5.49099705016454     -3.52827908148900      3.92675043379169
  H   -7.99065274920862     -6.96079914450326      3.20416860545589
  H   -9.08734071503820     -6.63420965285108      5.41439926897591
  H   -6.54624004619484     -7.23496835087637      0.14988293413486
  H   -5.59529495752686     -9.51659871037026     -0.10584982139944
  H   -3.96316586413118    -10.39049830587436      1.56913222530735
  H   -3.29360182136568     -8.95855876721087      3.50296391039590
  H   -4.25310685926160     -6.67587243693495      3.75301611166859
  H   -3.83055096228720     -3.48158292516844     -3.80595476464361
  H   -4.94083432695144     -1.23721678223404     -3.62657385853954
  H   -6.41640289748622      0.32803825037386     -2.16588132283527
  H   -7.66316726213550      0.59292074878885     -0.00316853373820
