40
Coordinates from ORCA-job ./opt_b3lyp_cdz
  F   6.33043570522313     -0.94576850504946      3.81830636779418
  C   5.58320635698944      0.14582569715688      3.63062446257106
  C   4.44460847563349      0.29175235785002      4.40486786995958
  C   3.67691325899832      1.44825063741874      4.19070952119454
  C   2.49410838463113      1.78105046744302      4.87112089496092
  C   1.88143233543650      2.97008770804640      4.51338587225758
  F   0.75411900147197      3.30722170392733      5.14637223403498
  N   2.28689662771332      3.82884666824166      3.60091574440020
  C   3.41230259829544      3.54140957631375      2.93453172158778
  N   3.85673639289104      4.38106441405133      2.01057266545856
  C   4.98897466900503      4.05192378877791      1.36246220256372
  N   5.73010225923114      2.94618720234373      1.55860009084146
  C   5.31865571883288      2.08717178163916      2.48008488550892
  N   6.02871841256385      0.97526804318623      2.70974457286036
  N   4.12962453068471      2.34636500824724      3.21542579157421
  N   5.43140513502404      4.93104868211338      0.40679886104989
  C   6.68719564342478      4.73639095761513     -0.27604328502076
  C   6.69634071648297      4.69423582832637     -1.67572734247573
  C   7.90514272456543      4.55286609856839     -2.36152078193336
  C   9.10719130960032      4.45013451096442     -1.65546057323827
  C   9.09416945111601      4.49335580103896     -0.25738464604415
  C   7.89044134213469      4.64010520055912      0.43443864012347
  C   4.66239429841194      6.09439944539561      0.03707631274320
  C   5.26437735014374      7.35621825676862      0.11624581367022
  C   4.55571525484274      8.49318292315579     -0.27955667856935
  C   3.24531909279548      8.37679119007742     -0.75215355336751
  C   2.64759532143588      7.11455904702474     -0.83049560603568
  C   3.35180064880756      5.97338357384278     -0.44195300621548
  H   4.14937082668526     -0.44615008504069      5.14713728553794
  H   2.08811840253448      1.12763936279735      5.63980284528506
  H   5.75545289891049      4.77649451320249     -2.22277113148018
  H   7.90399536376181      4.51848417467875     -3.45345111304658
  H   10.05182461450634      4.33725658594041     -2.19233582261799
  H   10.02883101957216      4.41466886284405      0.30263702292010
  H   7.87940411840402      4.66937949664200      1.52395173141995
  H   6.28830715008632      7.44184281284604      0.48441014709145
  H   5.03112879229090      9.47451562128510     -0.21276182611528
  H   2.69097266490490      9.26658579337432     -1.05920556667301
  H   1.62424262196002      7.01410072867681     -1.19936170110996
  H   2.88498850999427      4.99004406770801     -0.49871092346590
