38
Coordinates from ORCA-job ./opt_b3lyp_cdz
  Cl  8.12718840061319     -2.24411703711927      0.69814148063644
  C   7.32789999469667     -0.87096737526577      1.44004074541183
  C   6.76316789681291     -1.04250354021107      2.69549103706215
  C   6.12709236069882      0.07081406022754      3.27324215790088
  C   5.50037566652238      0.09078721634837      4.53210231467645
  C   4.92417361567984      1.28630366363274      4.93613530011466
  Cl  4.13663943084211      1.33723885226036      6.50197526123892
  N   4.90829703959389      2.41578182401949      4.24530423014092
  C   5.49740969102012      2.42548357761248      3.04352368706491
  N   5.49853870615046      3.54239444593077      2.32613530916228
  C   6.09728115977155      3.51863077424838      1.12526203948421
  N   6.70532489045099      2.45880865143952      0.57009311240063
  C   6.72596839848863      1.32268470213771      1.25636543216364
  N   7.32458792382507      0.24711941359134      0.73078024360690
  N   6.11692075982743      1.25732968908314      2.53411233105686
  N   6.08666298432913      4.68751365698831      0.39675567636162
  C   6.66450506157267      4.87789320366356     -0.90143644453099
  C   7.35633144623679      3.99342679442320     -1.73923396517392
  C   7.80747831150457      4.48000422997249     -2.97070804314242
  C   7.58365602657184      5.80610126887953     -3.36988500546594
  C   6.89439833338071      6.68235803890952     -2.53206282488249
  C   6.43438368313159      6.21638916227532     -1.29561168587072
  C   5.70177620817368      6.87449995828410     -0.22887110146296
  C   5.49462073264405      5.92879287238156      0.80194716908096
  C   4.80844118147124      6.28245609716707      1.97110158585001
  C   4.33933723974123      7.59583594188690      2.07980860306423
  C   4.54011908890966      8.54043703897483      1.06228228723671
  C   5.22393184435184      8.18311991798299     -0.09942727144854
  H   6.79874737209651     -1.98885696517737      3.22921283178629
  H   5.48059721163593     -0.80585203156938      5.14640159355557
  H   7.53554696982536      2.96589512897061     -1.44200963403964
  H   8.34838955811019      3.80071479396721     -3.63357203534887
  H   7.95025313451551      6.15217359626142     -4.33885620344951
  H   6.71408648887303      7.71691357541859     -2.83231265743727
  H   4.64692059369259      5.56127949811467      2.76488064679077
  H   3.80261331888343      7.88478395500263      2.98636588543127
  H   4.15986710773563      9.55749227601073      1.18090640734582
  H   5.38624016761856      8.91004907327813     -0.89827049635924
