70
Coordinates from ORCA-job ./opt_b3lyp_cdz
  C   8.13044252591757     10.45731998629829      5.61119989131484
  C   8.57505566819302      9.36065632949666      4.67223924007387
  C   8.94675304778732      9.66514506732227      3.34662370269890
  C   9.36732154965943      8.69393592391394      2.43635523176173
  C   9.41876568920425      7.36199604485110      2.86854243140488
  N   9.79778077179919      6.16063789817846      2.19104875709284
  C   9.65931366670823      5.07826446832318      3.11796091654681
  C   9.89469184102277      3.70340078303072      2.98144390570049
  C   9.66348670432365      2.88533909802154      4.08862299988930
  C   9.20686534374605      3.38263609748852      5.32666738063431
  C   8.97735346764535      2.44447098280468      6.48817227383866
  C   8.97777646757577      4.75589718636150      5.44361482265477
  C   9.20198314035557      5.59910257846647      4.34845272023946
  C   9.05067205428309      7.03351423410239      4.19195153787874
  C   8.63223658499241      8.02698958278278      5.08540964554816
  C   10.22177762475141      6.06303071666885      0.87837570125135
  N   10.29112888033167      7.19564842299748      0.17012330951389
  C   10.70258105179604      7.09970517316001     -1.10165091481049
  C   10.81015312148321      8.22626882174958     -1.92907794250300
  C   11.24289416167757      8.05807829921012     -3.23703628052981
  F   11.34078449784884      9.14280917610138     -4.01785295248665
  C   11.57922375594631      6.82524891551234     -3.77861382403095
  C   11.48049665751092      5.68236538526230     -2.97267619871826
  N   11.78974851147788      4.46366135159909     -3.43643420764222
  C   11.66138199530893      3.43577687769568     -2.59011239569034
  N   11.25027680365278      3.50868449659426     -1.31055113082510
  C   10.93749712195256      4.70499504256497     -0.82390646704417
  N   10.52671304189592      4.82977965126383      0.43369472340939
  N   11.04219620772225      5.85001671562131     -1.64783068107272
  N   11.97891450424881      2.17732739762076     -3.06749784245351
  C   11.90216636970928      0.95019895481010     -2.33388518437101
  C   11.51279759704005      0.68007345092581     -1.01489515196768
  C   11.54335097347372     -0.64618919317630     -0.58060306514964
  C   11.94665546320270     -1.71429614974579     -1.40826116976329
  C   11.95977125103729     -3.12848818641631     -0.87741603172918
  C   12.33101320288022     -1.42549122101107     -2.72008064402491
  C   12.30956466906183     -0.10357889954001     -3.18131123262416
  C   12.64849750883632      0.47151679990798     -4.46946459530606
  C   13.10561554054284     -0.11274371681271     -5.65690824718105
  C   13.36225208778436      0.68446266406208     -6.77547845588182
  C   13.85498294591509      0.08622651437990     -8.07213981914501
  C   13.14864127747204      2.07403629215967     -6.66780305484825
  C   12.69352628067859      2.68133926383345     -5.49613542628561
  C   12.44115186704651      1.86602789701770     -4.38480069751332
  H   8.92891977672665     11.20398842525248      5.76262118098554
  H   7.85448769764641     10.05693886303982      6.59832952495532
  H   7.25620661205203     10.99864727648748      5.21091499465591
  H   8.90574446874323     10.70549533523602      3.01143735721669
  H   9.64681126000606      8.95980449529204      1.42342770805242
  H   10.24572351755151      3.29026745493989      2.04246900765676
  H   9.84621349012995      1.81194560818600      3.98491525703220
  H   9.90873010710449      1.92708325434577      6.77600148260750
  H   8.24136453878011      1.66280175045759      6.23340777755694
  H   8.60457328022991      2.98107281151092      7.37363838903303
  H   8.62346935530828      5.17469506712892      6.38913857476270
  H   8.35036577936340      7.75655059935881      6.10633767372310
  H   10.55320725075169      9.20461779087767     -1.53041466075153
  H   11.91540739852475      6.72228815822606     -4.80744664021923
  H   11.19754774487700      1.47949364346990     -0.35376645458131
  H   11.23975737455391     -0.85994301585944      0.44821253975468
  H   10.96068302446074     -3.43291731968714     -0.52147496712159
  H   12.64998214137492     -3.22955786565157     -0.02217847903751
  H   12.27484559692376     -3.84695398772760     -1.64910937337371
  H   12.64852642862239     -2.22998223160909     -3.38856758334291
  H   13.26131136012356     -1.19357185725056     -5.70642967396758
  H   13.98119264924605     -1.00397018606493     -7.99193694499763
  H   14.82667147782088      0.51663685764550     -8.36919765280884
  H   13.15032408357624      0.28327204155427     -8.89829217934795
  H   13.34632725187923      2.70850682930581     -7.53655275602402
  H   12.53875283812059      3.75291302609839     -5.44484968028723
