58
Coordinates from ORCA-job ./opt_b3lyp_cdz
  F   8.86784534601566     -1.97318182960769     -3.46088640804863
  C   8.77110676654625     -0.88372731998827     -2.69069115161250
  C   9.85475882920735     -0.54260676966511     -1.89256894059574
  C   9.76568450382871      0.59563076041671     -1.08127143693601
  N   10.77764043567644      0.97823210204352     -0.28741931277698
  C   10.59461243708940      2.07739520377681      0.44801750358829
  N   9.48932776194003      2.84410199542283      0.47168809511075
  C   8.47070415088600      2.48933197849831     -0.30487514287155
  N   7.35612719921103      3.21317613553951     -0.31865806904065
  C   6.35494944496455      2.81042208746390     -1.12211938182181
  N   6.36513034068191      1.74057192532312     -1.92077869509430
  C   7.47801073605247      0.99083836307758     -1.92798330474523
  C   7.59201295168619     -0.15174411772519     -2.73001840642889
  N   8.57326885151119      1.33819513330365     -1.11909875580764
  N   5.20622476988746      3.58597970139417     -1.11415132150865
  C   4.98928919915362      4.76504182291025     -0.33509669359346
  C   5.81341246630082      5.43411370296344      0.57913512313684
  C   5.32027621843588      6.58481420629356      1.19865847766994
  C   4.03253340173525      7.06082850364153      0.91441832705419
  Cl  3.45582023613851      8.51491812367772      1.72036438427324
  C   3.20307445505254      6.40632089429908      0.00844184543128
  C   3.69193514332730      5.25340072204710     -0.61495441310354
  C   3.08647104593991      4.36364171993465     -1.58672933301261
  C   1.82878708186471      4.38482163605518     -2.19849536515469
  C   1.52730043542996      3.37584967421559     -3.10892315168762
  Cl  -0.04445569638981      3.36638003658173     -3.90010893671929
  C   2.45127462352077      2.36523237500441     -3.40919702248931
  C   3.70847837170429      2.33973414920966     -2.80078555974277
  C   4.02574280620961      3.34845848802569     -1.88227962029117
  N   11.63903159806732      2.47349443738954      1.26867193864356
  C   11.64727458213165      3.61109786866506      2.13467186571878
  C   10.67507044474334      4.58741221642979      2.38832593903780
  C   10.97330838785554      5.59891879614218      3.30427482032307
  C   12.21442595289603      5.63866501572597      3.95518735265618
  Cl  12.54364178025311      6.93328955081245      5.10065007209535
  C   13.18947078391719      4.67545290203500      3.71295387450900
  C   12.89604612873631      3.66004494841396      2.79661044941664
  C   13.68318871681628      2.53265847742185      2.33620746340293
  C   14.97659910342159      2.11476334712516      2.66627947032460
  C   15.47228916344573      0.97083133534227      2.04697293088304
  Cl  17.09518455111953      0.41179369254454      2.43473419099303
  C   14.70440031557354      0.25351786434662      1.11905345105971
  C   13.41220235707210      0.66681809991963      0.78624875471951
  C   12.90008003440236      1.81612063724433      1.40161204688840
  H   10.76700158606960     -1.13417026236515     -1.88096534310195
  H   6.75816571529462     -0.44165730813300     -3.36478448469054
  H   6.80957804314434      5.06863951238309      0.80117626224561
  H   5.94419587710409      7.12188055536004      1.91372022028321
  H   2.20333037311963      6.78519692323831     -0.20521431241246
  H   1.10228808546687      5.16583706134613     -1.97282261015752
  H   2.18315252101086      1.58972868936243     -4.12735983891896
  H   4.42031051374632      1.55691647094243     -3.03513263682693
  H   9.71448937936464      4.55938995951352      1.88661770066639
  H   10.23175408313634      6.36946524366356      3.51733060823833
  H   14.15121869277717      4.71609054167153      4.22490784405630
  H   15.58300687527069      2.66468240584024      3.38640392831737
  H   15.12307722377467     -0.63850093246614      0.65208489032167
  H   12.82114281656761      0.10983054593853      0.06872981811487
