58
Coordinates from ORCA-job ./opt_b3lyp_cdz
  F   3.63345671344787     -1.02193707483513      0.10197644330235
  C   4.57001737808023     -0.06785964277004      0.07493728131057
  C   4.17032005968771      1.24227540068352     -0.15261922344567
  C   5.14233349924606      2.24963775187011     -0.18331650323951
  N   4.82127633785209      3.53389019888817     -0.40562463196959
  C   5.82053349170696      4.41699407646718     -0.43153833416325
  N   7.12530790058151      4.15085425770215     -0.24150795941827
  C   7.47238533460949      2.88892841704216     -0.00701594483880
  N   8.74666050859786      2.57161662577260      0.20146077973579
  C   9.04266780889410      1.27773136227885      0.41968004272295
  N   8.17834730833164      0.26220250711978      0.44604457157349
  C   6.88257328058000      0.55347448960768      0.25125679063575
  C   5.89333677367412     -0.43713368786344      0.27607896100003
  N   6.48200314840805      1.87992382515409      0.02076617167943
  N   10.37982192060981      0.97522198423508      0.63673221086862
  C   10.93273111833717     -0.33504000796497      0.76899653040928
  C   10.32227323735881     -1.59311509064743      0.70604223532052
  C   11.14507290584843     -2.71089342730534      0.86014923254567
  Cl  10.40453918796243     -4.30765823068994      0.78619308634251
  C   12.52734996728184     -2.61690831842625      1.07215208761081
  C   13.11964169383723     -1.35718224737590      1.13122578597004
  C   12.32662167905893     -0.21471135815971      0.97935503897142
  C   12.64932665035932      1.19733434080431      0.98800656926524
  C   13.85771408900619      1.87840253137229      1.16979212378048
  C   13.86931553837745      3.27077032643333      1.14419100173986
  C   12.66626249711004      3.96063671802026      0.93685579474918
  Cl  12.69373335480041      5.71937249676229      0.91558534247898
  C   11.44235328827080      3.31454925200189      0.74635856304254
  C   11.44878371816866      1.91491906406562      0.77430841520118
  N   5.48682672173613      5.74181160220936     -0.67668602044933
  C   6.40191136502603      6.82376411425593     -0.86822629065403
  C   7.80165095496139      6.84387961375817     -0.87837722245730
  C   8.41886307556543      8.07388523487786     -1.11885370282107
  Cl  10.17668338353373      8.13425954845051     -1.14633527596494
  C   7.70080596452500      9.25799415509075     -1.33911986468998
  C   6.30873023026879      9.22004945157825     -1.32643389463938
  C   5.65605068404540      8.00467867489668     -1.09409065333256
  C   4.25117476565435      7.65639632480186     -1.03857544206459
  C   3.09013333019010      8.42383846170976     -1.18061168461660
  C   1.84397467950420      7.81025451445909     -1.07195567424431
  C   1.78208423470540      6.43271643507259     -0.82091571874447
  Cl  0.20228784573146      5.66515037082324     -0.68442071891148
  C   2.91908892140621      5.63512874512684     -0.67510833864647
  C   4.16315270766035      6.26673365708258     -0.78805957345575
  H   3.12699280817597      1.50508435122648     -0.31066124775194
  H   6.18012035120509     -1.47060199562490      0.45573488539189
  H   9.25636557782199     -1.69885851027027      0.54895529974057
  H   13.12157917768566     -3.52345095596872      1.18754282823159
  H   14.19557007753453     -1.26634766936707      1.29355628549754
  H   14.78523980804550      1.32617823807500      1.33420077833445
  H   14.79566152898970      3.82794458932991      1.28452095976914
  H   10.53057672353069      3.87630508237627      0.58241047764541
  H   8.38496651193894      5.94736327726413     -0.70583544634248
  H   8.23618722117847     10.19030945248389     -1.51914236118453
  H   5.73460502111868     10.13242731418914     -1.50033238111422
  H   3.15604439587556      9.49647074740242     -1.37384020014155
  H   0.92350150127705      8.38435413877667     -1.17864669505111
  H   2.83803004088723      4.57211449571757     -0.48688557050241
