18
Coordinates from ORCA-job ./opt_b3lyp_cdz
  C   0.82164672801967    -10.49712374358067      1.12508939434126
  C   -0.52340725344883    -10.58003235449240      0.72568751150077
  C   -1.30487428222679     -9.43303924319540      0.66309631204321
  N   -2.61819116041472     -9.45670460467957      0.28130722143065
  C   -3.24942299978171     -8.30248760749243      0.26315380866543
  N   -2.76627114014185     -7.07890307277243      0.57596443065809
  C   -1.48916569349046     -7.04888395648930      0.94819387381534
  C   -0.81287332970114     -5.85239623570390      1.31278246253239
  N   0.45597244648992     -5.80639964665777      1.68482092350383
  N   1.18827259232755     -6.91321251052211      1.73879839806126
  C   0.62881199295898     -8.09704468903245      1.40977202043603
  C   1.39393525675539     -9.28659757573221      1.46162533784754
  N   -0.71045151168214     -8.20387948600042      1.00869293667372
  H   1.42260543950930    -11.40835531357016      1.16907758622171
  H   -1.00000433422215    -11.52041274396029      0.45501005159281
  H   -4.30137337798812     -8.32845650055507     -0.04364431441302
  H   -1.37365978929208     -4.91710639205998      1.28393706218956
  H   2.43127041632924     -9.18231432350343      1.77532498289945
