58
Coordinates from ORCA-job ./opt_b3lyp_cdz
  F   5.25949774163657     -0.69163326947172      3.58765684314046
  C   6.00548076215782      0.11722360727490      2.82798090504232
  C   7.36277462041195      0.21504785706841      3.10416453937817
  C   8.15415521727367      1.05725056952508      2.31378764091843
  N   9.47406957375729      1.18549593604523      2.52207490107076
  C   10.14550521977476      1.99227017969413      1.69940235161839
  N   9.62724410855001      2.71479688935581      0.68995025665407
  C   8.31847316744547      2.62326213872010      0.47219207288603
  N   7.74847396439749      3.33201465589280     -0.49806467072288
  C   6.42512261927824      3.18221620649319     -0.68761581080754
  N   5.61211430783263      2.38089998832274      0.00191901416472
  C   6.15551105819961      1.66801044661364      1.00115666150151
  C   5.38429036689859      0.81720021606244      1.80218726727087
  N   7.52924457240323      1.76824710582701      1.27611255319576
  N   5.85401252943487      3.93680756081157     -1.70334192614228
  C   4.51805569293233      3.81055688077301     -2.19119455354807
  C   3.49215579719226      2.93139985724621     -1.82285106773678
  C   2.28214335914862      3.03953560725270     -2.51148400927917
  Br  0.85492654624781      1.85029439545184     -2.02986609411498
  C   2.06440494179036      3.97613218962783     -3.53161894739219
  C   3.09693969503154      4.84225420198071     -3.88667292826031
  C   4.32449927209908      4.76172193015786     -3.22040985895955
  C   5.55868028765913      5.50520564706380     -3.36888185797974
  C   5.91549089813170      6.56534071509147     -4.20907587309968
  C   7.19274143113830      7.11333970243262     -4.11529852874533
  C   8.09408648106402      6.58804558022575     -3.17794374675034
  Br  9.84236232690409      7.36313011293493     -3.05064768991981
  C   7.77696784196512      5.52504826724566     -2.32862056605564
  C   6.48848821158383      4.98673358357061     -2.43690464842929
  N   11.51448992076979      2.10180546155431      1.90224223252460
  C   12.24245755045597      1.57170149488949      3.01022587511968
  C   11.80211458040932      0.86524943630328      4.13630014899763
  C   12.76815782917705      0.49451018551829      5.07404033288480
  Br  12.19814576704166     -0.47689739616787      6.62798720532331
  C   14.12952744121442      0.79606824153912      4.92894595657194
  C   14.55012991954716      1.50140119638598      3.80289560759378
  C   13.61030878351512      1.89172036112098      2.84282544146315
  C   13.74096240967996      2.62344183935645      1.59962319713460
  C   14.85501834119313      3.15383088746365      0.94034741494711
  C   14.68391608630321      3.80018676480226     -0.28170684650387
  C   13.39489495214904      3.90458541707478     -0.82442306287834
  Br  13.17817957442015      4.78280350736846     -2.51413559768120
  C   12.25810668433798      3.39563459084909     -0.19154305467218
  C   12.44922699419568      2.74899680608969      1.03606012125292
  H   7.82713305268388     -0.34776499752808      3.91053952529238
  H   4.31790235851173      0.72751303759543      1.60881563199588
  H   3.63059382944177      2.20377336142483     -1.03328240049691
  H   1.09957311855031      4.02112461709702     -4.03661177777938
  H   2.94538046119196      5.57571226476019     -4.68131201165486
  H   5.19964590001248      6.96649557432923     -4.92958774117457
  H   7.49323173125360      7.94171283113323     -4.75674445469897
  H   8.49631386682931      5.13208282958459     -1.61989894948619
  H   10.75796509837731      0.61218587304695      4.26954739183305
  H   14.84395462021573      0.48122080306225      5.68948052837724
  H   15.60642063206189      1.74735542020803      3.67565042453239
  H   15.85268841136592      3.05864531858394      1.37400841114824
  H   15.53671283316047      4.21874750506290     -0.81603016776251
  H   11.27203463964857      3.49913800826747     -0.62875161109063
