70
Coordinates from ORCA-job ./opt_b3lyp_cdz
  C   4.50880527365961     -3.49930260552415     -3.42291004414597
  C   5.17763193376365     -2.50292499055137     -2.50535673281616
  C   6.34417613521935     -1.82662724545801     -2.91772700489668
  C   7.00799567092950     -0.90024215787032     -2.11137233078669
  C   6.48170011623142     -0.63985458205902     -0.83934170850554
  N   6.91745751641635      0.23830301963781      0.20375409458502
  C   5.99859117392955      0.10885785628187      1.29438648052334
  C   5.95582694689805      0.73175573026927      2.54933670131732
  C   4.91483426216418      0.38882579054373      3.41438284239828
  C   3.91679919898733     -0.54854927736791      3.07801751293152
  C   2.81322689382020     -0.87278634525217      4.05731282486870
  C   3.97759798310455     -1.15896690996951      1.82222474039256
  C   5.01045094846578     -0.83379236047625      0.93504661107519
  C   5.31368301811390     -1.30363950782251     -0.40453325186301
  C   4.66760538912483     -2.22852522862423     -1.23344496909291
  C   8.02270796631895      1.06283798003493      0.17099495092746
  N   8.77301325510899      1.03571065114305     -0.94941924093656
  C   9.84392886418927      1.81825699335503     -1.00918459508298
  N   10.61803695799720      1.83105536480457     -2.08778328701297
  C   11.69346180655063      2.64499599707447     -2.09362222642324
  N   12.06826091454855      3.45932240125323     -1.10158829657562
  C   11.30315766656759      3.46292030283153     -0.00674396381579
  C   11.59887151001061      4.27768000476976      1.09713890623176
  F   12.67564482149126      5.07412763435939      1.05487268932191
  C   10.78684250775283      4.26412055715032      2.22804792055072
  F   11.08768951821155      5.04514369089031      3.26149367972191
  C   9.66388258176576      3.44345208848364      2.29101851190501
  F   8.89428691317740      3.44368996504182      3.38795680074021
  C   9.32450017704125      2.61005404977299      1.21394080466666
  N   8.25190267794360      1.81498480706630      1.25242383616750
  N   10.16605095526725      2.65330140754033      0.09632791409566
  N   12.47847910936442      2.63607724070513     -3.22772145520588
  C   13.65472456977038      3.42445121807594     -3.44081543935765
  C   14.30231915089468      4.36238144847568     -2.62497205213660
  C   15.45210070825184      4.97858955496833     -3.12281241008475
  C   15.98061987898089      4.69691833009923     -4.39925785998002
  C   17.23171604109380      5.39518197463318     -4.87796325630538
  C   15.31983219973505      3.75915398489573     -5.19753809263396
  C   14.16483701566426      3.12609775922538     -4.72332407022863
  C   13.29417564458659      2.13291788690128     -5.32559053951903
  C   13.33542900914401      1.49317692226293     -6.57016814149329
  C   12.35481067217503      0.55622395603304     -6.90736917557625
  C   12.36727432709530     -0.14914435246462     -8.24315029259440
  C   11.34098134379715      0.28203257258880     -5.96650087784966
  C   11.27614675017770      0.90558672168212     -4.71908315876474
  C   12.26789085727755      1.84240065241090     -4.40023192794214
  H   4.24566195745030     -3.03994960177435     -4.39085695159296
  H   3.58570904541747     -3.90151203941174     -2.97906556570183
  H   5.17494477118158     -4.35164190009350     -3.64211825123351
  H   6.75139366276986     -2.03237890773653     -3.91172390335216
  H   7.90357414552492     -0.39567631644899     -2.45681876374155
  H   6.70688106333952      1.45767046978450      2.84121854763244
  H   4.87805748179304      0.87228045085407      4.39470278816684
  H   2.20045843331246      0.01789301655689      4.27946126982011
  H   3.22140255044666     -1.22958803506573      5.01818665556439
  H   2.14203863506630     -1.65218888074620      3.66630733904901
  H   3.21974541185654     -1.89084546222534      1.53088058714504
  H   3.76389689844225     -2.73438397297871     -0.88386471695797
  H   13.92364653439938      4.60336271798771     -1.63765026862540
  H   15.96023399570069      5.71131057330297     -2.48955630813725
  H   18.09466905646089      5.15828733198704     -4.23196118614663
  H   17.11021475158757      6.49163900289905     -4.86222336053004
  H   17.49153206810679      5.09995334334216     -5.90568402879317
  H   15.70268358172073      3.51852393878345     -6.19269304475156
  H   14.13598277230095      1.72778820995950     -7.27652651250208
  H   13.23974928291615      0.14344088324903     -8.84648878975497
  H   11.46080300199577      0.08427688087667     -8.82792235607373
  H   12.39566102279641     -1.24498534686383     -8.11809899233692
  H   10.56894235344839     -0.45033089900038     -6.21910092606027
  H   10.48354868917133      0.67340359094660     -4.01634468186059
