58
Coordinates from ORCA-job ./opt_b3lyp_cdz
  F   3.65352720774610      0.74760215372460      3.72791491764693
  C   4.58782249971928      1.29100238608045      2.95676447418449
  C   4.29803783816247      2.44579568545447      2.23396253694758
  F   3.08380528196116      3.00241550783912      2.31874443307626
  C   5.26817520269858      3.03822377687467      1.41222991703398
  N   5.01129541606331      4.14676418440399      0.70948726014264
  C   6.00690332995720      4.62521429235784     -0.03925346537578
  N   7.24212340358111      4.09684883515134     -0.15238978343792
  C   7.51924028507922      2.99585349864187      0.53651897925368
  N   8.71920234847871      2.43166769599490      0.46375622361533
  C   8.94299625218740      1.31484075284468      1.18510004330575
  N   8.06516184622485      0.70356709385686      1.98289852918472
  C   6.84985716881849      1.25482814362862      2.07177523663690
  N   6.51899558997324      2.41401339050802      1.36212267808023
  C   5.84658604981719      0.69975338115612      2.87969345058090
  F   6.10991554956094     -0.40959589944158      3.58068440024241
  N   10.20108055917153      0.75009967403711      1.08818579839704
  C   11.28926359272509      1.23488296158714      0.29834895486056
  C   11.39303028429159      2.34690833577864     -0.54667359236952
  C   12.60736601163631      2.57233135984591     -1.19940714033937
  C   13.69557004394044      1.70798658335112     -1.01423798549366
  Cl  15.20456850360175      2.03304424771480     -1.85830202080403
  C   13.60570267085405      0.59929573448148     -0.17698768946306
  C   12.39224502329941      0.36883232077222      0.47925684146734
  C   11.98597489784532     -0.67660826300584      1.39950341130830
  C   12.68310418482538     -1.77508333464705      1.91254550327693
  C   12.01390910960376     -2.61966675594145      2.79421496026332
  Cl  12.85560740555223     -4.01285047112776      3.46215251046859
  C   10.68190114426346     -2.38326309704866      3.16170726383747
  C   9.97994803745549     -1.28771760056535      2.65266072189407
  C   10.64224117637143     -0.43017342892190      1.76420213753766
  N   5.74822208774742      5.77096799751791     -0.76824538645595
  C   6.66195602549769      6.45016246955527     -1.63237046491607
  C   7.99216603330079      6.17225115869244     -1.97108141990598
  C   8.64318867866034      7.03141542317808     -2.85963320292222
  C   7.98287622063121      8.14414104287714     -3.39942178692464
  Cl  8.84467009139215      9.19739320561590     -4.51448048450563
  C   6.66078450459161      8.43149355982692     -3.07119033228994
  C   6.00400804048581      7.57456689437327     -2.18206102193006
  C   4.65377527096679      7.59850279302809     -1.65183118987401
  C   3.59460230079995      8.48611329416985     -1.86671562151484
  C   2.39436698602315      8.24360657218190     -1.20406523898550
  Cl  1.03748903362879      9.33684924006165     -1.44768421732537
  C   2.24374673782616      7.14545524830719     -0.34584890177623
  C   3.29801787076886      6.25511135235060     -0.12688552070688
  C   4.51130521247574      6.48818456353468     -0.78794211716717
  H   10.55293420819179      3.01684112766794     -0.69172278066597
  H   12.71235914999660      3.43163356502407     -1.86239431964304
  H   14.45894404405658     -0.06562342930490     -0.04086535295322
  H   13.71919988259078     -1.96912454624399      1.63416084613054
  H   10.18749635532894     -3.06457394205704      3.85475102526750
  H   8.94970141922207     -1.11141432699404      2.94166342270558
  H   8.50512413959820      5.31233116038303     -1.55510829988321
  H   9.67901027343618      6.83572937932238     -3.13847953347706
  H   6.15771615397010      9.29966130012118     -3.49761806182167
  H   3.69949220088376      9.34369691991051     -2.53171153465241
  H   1.28992654492227      6.98469998430022      0.15746389640776
  H   3.17391261758882      5.40782484718038      0.53844809383810
