58
Coordinates from ORCA-job ./opt_b3lyp_cdz
  F   4.13947064219449      0.21258813874960      3.81376879556846
  C   5.01394199689862      0.80261039271153      3.00766013221566
  C   4.70426698827758      2.03662557105308      2.44072753706824
  F   3.53097505651849      2.62186296588097      2.70922637220179
  C   5.61128458140558      2.67912355330052      1.58526851676645
  N   5.33385689776042      3.86356865599933      1.02920050153493
  C   6.26804056258101      4.38372859751455      0.23103506222721
  N   7.46078332120154      3.82917083254830     -0.06459432801219
  C   7.75732274784657      2.65320822501122      0.47648481981620
  N   8.91746691175458      2.05971112083540      0.22060812861710
  C   9.16309316073256      0.86603024601565      0.79703599830679
  N   8.34449208005034      0.20393153309677      1.61670102890760
  C   7.17031561216304      0.78368063517722      1.88919875326362
  N   6.82134226028920      2.02183776509244      1.33998340411357
  C   6.23063639034148      0.18050054633539      2.73800946318678
  F   6.51384710832903     -1.00540419895861      3.28992175696957
  N   10.37862883962280      0.27228861926342      0.51076124905808
  C   11.40154623120554      0.80122671430169     -0.33566746095680
  C   11.46818194951405      1.99261731561425     -1.06870075246207
  C   12.61905340310045      2.24564799256692     -1.81997904143212
  C   13.68067563898286      1.32997895539885     -1.83975118772766
  Br  15.23716024976446      1.72402769595982     -2.88638513502668
  C   13.62748398840623      0.14197179307629     -1.11547442663494
  C   12.47742924952095     -0.11583764155733     -0.36164399208744
  C   12.12013196700802     -1.23902523255243      0.48468650193812
  C   12.81594866128716     -2.40927251246728      0.80619537145410
  C   12.20167558728823     -3.31950585995188      1.66240885507141
  Br  13.11862129623624     -4.93660929142836      2.12942480655114
  C   10.92562351427990     -3.07885362381051      2.19077297655714
  C   10.22576820325371     -1.91146156877129      1.87300552802946
  C   10.83263434254177     -0.98735241854304      1.01228375790369
  N   5.98702383385187      5.60738971922711     -0.34837014185562
  C   6.83613415430324      6.34087403638235     -1.23355271775486
  C   8.11177095822517      6.05571093607462     -1.73616131870987
  C   8.70569084879068      6.97904076830816     -2.60085411135302
  C   8.04152139837973      8.16148531973904     -2.95660805938524
  Br  8.89917558990031      9.39515592401852     -4.14658704151598
  C   6.77323898163911      8.45736227509705     -2.46401951905323
  C   6.17444318690453      7.53614477424981     -1.59790600306107
  C   4.88773723965152      7.55007278866454     -0.92730037747375
  C   3.85128003253326      8.48957040310125     -0.94032057803662
  C   2.71635266160174      8.21986752336415     -0.17994712887357
  Br  1.27201755681865      9.47982943564144     -0.16802552715712
  C   2.60707518109489      7.04565101995235      0.57816303815624
  C   3.63932485041566      6.10344020547435      0.59484304021866
  C   4.78690792363720      6.36284601193203     -0.16595416849155
  H   10.64843875606221      2.70225939901669     -1.05505756829661
  H   12.68974048373186      3.16780279056242     -2.39732332408712
  H   14.45716150830574     -0.56491589727936     -1.13575111583422
  H   13.80854928934098     -2.60370105187665      0.39949249147112
  H   10.46972854610930     -3.80989580259417      2.85890534196922
  H   9.23900038612488     -1.73224442038186      2.28561489953380
  H   8.62744857110129      5.14194891139962     -1.46255376067764
  H   9.69843424696756      6.77477756444454     -3.00264077889189
  H   6.26323645152904      9.37883523214847     -2.74546305534518
  H   3.92879072372964      9.40497971854357     -1.52723597026876
  H   1.70617889512777      6.86142787156259      1.16391950761929
  H   3.54748830376590      5.19729902583647      1.18357095417203
