62
Coordinates from ORCA-job ./opt_b3lyp_cdz
  O   3.88411657346198    -10.96367709297142     -0.08751862908237
  C   3.26417931225529     -9.76475294923894      0.13336438651117
  C   3.55936745824529     -8.71812075472697     -0.75956492483856
  C   2.98165639164753     -7.45680404721979     -0.62331571097805
  C   2.08635263359372     -7.24063230364491      0.43419155341167
  N   1.34684981478366     -6.08017304209694      0.82787405522500
  C   0.58360460749981     -6.42858926280668      1.98603315564579
  C   -0.30346698887138     -5.68037724520097      2.77272499725358
  C   -0.91257885155722     -6.29816861571851      3.86395968965509
  C   -0.65566195844178     -7.64361598034309      4.18566624475861
  O   -1.30323661416130     -8.15646173167711      5.27540137168005
  C   0.22726586793851     -8.39192918155564      3.40470446050130
  C   0.84365502919142     -7.77943610897443      2.30686190755090
  C   1.78742590227431     -8.28940727317432      1.33185237417100
  C   2.37300793787886     -9.55303780222903      1.18684334988397
  C   1.36679865508787     -4.84807046287245      0.20362092562250
  N   0.59483858833439     -3.88530343868620      0.72171177594031
  C   0.61460515938509     -2.69090801642787      0.11473765761785
  C   -0.15891059941074     -1.61656834798576      0.57605010187749
  C   -0.09271958823255     -0.40520820591599     -0.09828822341833
  F   -0.83724598084011      0.61408085682782      0.35317612517448
  C   0.70352055007784     -0.19380371502168     -1.21479587166802
  C   1.48791394052247     -1.25145474497452     -1.69774941537211
  N   2.27798490227736     -1.11041681498162     -2.76989140910085
  C   2.98789240682149     -2.17966380136260     -3.15309572154198
  N   2.98102439436654     -3.38955477176877     -2.56024519126715
  C   2.20680848868121     -3.55651104416474     -1.49414826466389
  N   2.16582348424411     -4.73123124431741     -0.87348892627263
  N   1.42222687098899     -2.47976115749336     -1.01650979402376
  N   3.80352729155494     -2.03662315973073     -4.25567422215340
  C   4.64678497008859     -3.04635009339605     -4.82294558545244
  C   4.87550115064837     -4.37639603051215     -4.45361120050002
  C   5.77295220552928     -5.13034425412318     -5.21419416386957
  C   6.44000073033787     -4.58635598980412     -6.32631711583420
  O   7.32063961421274     -5.31075781834645     -7.08071172141462
  C   6.21264428250214     -3.25857303458154     -6.69595278307693
  C   5.31724264630387     -2.49777328708860     -5.94113320543514
  C   4.88715911494393     -1.11828881236721     -6.07932913022364
  C   5.23778775540626     -0.13685994194896     -7.00861353437463
  C   4.65575150236634      1.12849290157079     -6.89906045876721
  O   5.01589224542645      2.07165525576510     -7.82113237374482
  C   3.73675543621952      1.39249129846428     -5.86803003365742
  C   3.38071408143745      0.41575508756195     -4.93403038658254
  C   3.96267319356314     -0.85160531475523     -5.04217922594263
  H   3.59675007640996    -11.59226139134162      0.59095001584567
  H   4.25985245130263     -8.91659406275866     -1.57266027147319
  H   3.21814157213014     -6.65900340674987     -1.31858930764243
  H   -0.51095549832435     -4.64306126709178      2.53633032434583
  H   -1.60762097929589     -5.74067751599878      4.49427922031851
  H   -1.04129845053290     -9.08226478920849      5.38629457986167
  H   0.43487517188135     -9.43878620131778      3.64547683821771
  H   2.13526786718629    -10.35911595302271      1.88734064167078
  H   -0.79219843496430     -1.75391607044770      1.44907100362643
  H   0.73610990739469      0.76676668531210     -1.72302358206483
  H   4.36877726526593     -4.81089175288279     -3.59917565845854
  H   5.95843589690829     -6.17179396584032     -4.93317739586386
  H   7.38062928654730     -6.20510041805841     -6.71397546621914
  H   6.73367803653992     -2.84288147101237     -7.55977340600373
  H   5.94985786789185     -0.33442245009627     -7.81132384043265
  H   4.54085655889026      2.89295901349866     -7.62705409697424
  H   3.28651911845149      2.38718393322409     -5.79119550935402
  H   2.67095767773281      0.63513257782230     -4.14471099860984
