18
Coordinates from ORCA-job opt_b3lyp_cdz
  C   1.12754430001345      0.82203246990190      9.88541375824410
  C   -0.17902646630360      0.63495476548347     10.29431189659484
  C   -1.19695165256387      0.55522538996013      9.31846839667340
  N   -2.48295418396774      0.37553316410269      9.63293571419293
  C   -3.33428371371020      0.31992347905440      8.59635351686904
  N   -3.06867792058486      0.41945608075108      7.30578067535542
  C   -1.77228243583542      0.60244824199446      6.95411419812346
  N   -1.44733872647477      0.70889094510851      5.67664650104183
  C   -0.14515969101169      0.89033059117224      5.36737672328077
  C   0.87591154775400      0.97344085886514      6.28595025134827
  C   0.57117606898687      0.86441734865090      7.66572367859247
  N   1.51686596276585      0.93691731106993      8.60362030779559
  N   -0.78880723576939      0.67543136001364      7.97929037600437
  H   1.92966675234583      0.88619238422165     10.62839535911784
  H   -0.46982803075232      0.54465473196839     11.33916904303348
  H   -4.38848523222838      0.17220527973557      8.85940210312176
  H   0.07254445413139      0.97253974713383      4.29728553840574
  H   1.91809629020482      1.12014603781212      6.00860410220464
