82
Coordinates from ORCA-job ./opt_b3lyp_cdz
  C   5.90366986671934      5.20483754733989     -3.00424997072437
  C   4.66325084422094      5.45728217698487     -2.17963811762459
  C   4.33177538564764      6.77745307452117     -1.77525136599406
  C   5.20628237513894      7.94462486317049     -2.16631309746299
  C   3.18469647710532      6.98470693864310     -1.00539448498300
  C   2.37218974053766      5.90684492944890     -0.63990468431505
  C   2.70230092604737      4.59946219059534     -1.05396230049885
  C   3.85012546011375      4.37242374632385     -1.82203123451922
  N   1.72043466141631      3.69735045966860     -0.53012421824484
  C   0.77798542313965      4.47146081458879      0.21923980270022
  C   -0.37287024344044      4.09904618570553      0.92295669269548
  C   -1.13842285189721      5.08385428536623      1.56303066893317
  C   -2.37904502007920      4.67351953075529      2.32137242874314
  C   -0.75670012593955      6.45008542872696      1.50461397048724
  C   -1.58054487343680      7.50967040923637      2.19644406605698
  C   0.39430933700234      6.80452850176078      0.79632737797969
  C   1.16125701791134      5.82746063684255      0.15405677323586
  C   1.68775865244880      2.32801074026205     -0.71548063827065
  N   0.77517611460296      1.63709867570680     -0.02225426997957
  C   0.75678136506699      0.30781284518057     -0.18725127904215
  C   -0.14644616136588     -0.50924399440421      0.50764984337611
  C   -0.10673527898511     -1.88066594410926      0.29878201993017
  F   -0.97483514420563     -2.65080329110235      0.96973279594314
  C   0.78473770909752     -2.49659220952501     -0.56836610074796
  C   1.69743002737411     -1.70267438456127     -1.27750453520304
  N   2.57654309181016     -2.23582468473142     -2.13629362026288
  C   3.39212018742545     -1.39286943297450     -2.78044433837329
  N   3.42684145661093     -0.05502258138031     -2.63312748295002
  C   2.57556038701344      0.49948431003703     -1.77612898413834
  N   2.58094972120582      1.81434966612450     -1.58219093925105
  N   1.65986878395956     -0.31338009592960     -1.06719066920340
  N   4.28568701835599     -1.94084094339686     -3.68145367604095
  C   5.13253060630736     -1.21605528427482     -4.58130139891913
  C   5.27075931534595      0.15661148701169     -4.81741752644860
  C   6.17310663155593      0.59794971392567     -5.79565154489554
  C   6.31417645690825      2.08046658220526     -6.04977772353617
  C   6.94700699248469     -0.33017033592228     -6.54125121450748
  C   7.92258024427538      0.14836924807842     -7.58973843085153
  C   6.79287404075055     -1.69653727903094     -6.29499509173686
  C   5.89032588117180     -2.14448217489700     -5.32528969698652
  C   5.51815594204917     -3.47478424574888     -4.88390528896812
  C   5.95577812998979     -4.74697384428684     -5.26523146922291
  C   5.42525233472285     -5.88971205136207     -4.66129557929323
  C   5.90129062021949     -7.26078249940869     -5.07785775326233
  C   4.43608471688641     -5.74248703210167     -3.65346864195799
  C   3.84733034126670     -6.96186089922201     -2.98324640557888
  C   3.99138747220289     -4.46997966237244     -3.26800750055934
  C   4.53201375153578     -3.33611025266333     -3.88481634594633
  H   6.81511650688379      5.55298016116551     -2.48741720508687
  H   6.02820451560393      4.13335629959427     -3.21732408896369
  H   5.86871116546220      5.73966863467719     -3.96986577342135
  H   6.23569353833253      7.83136492215674     -1.78357510420982
  H   5.28970027290043      8.04434617312945     -3.26267727610343
  H   4.80580521769330      8.89112380675950     -1.77385452604520
  H   2.92360894871763      7.99610768795755     -0.68282127992639
  H   4.10741429431109      3.36728198432916     -2.13982910051452
  H   -0.66802556657581      3.05675298736970      0.97765073631578
  H   -2.31816659020715      4.95479290048015      3.38740703312572
  H   -3.28375162967997      5.16322975659188      1.92027299579101
  H   -2.53584053215525      3.58623513543418      2.26995859364873
  H   -1.65151166035151      7.32857745037749      3.28326240742043
  H   -1.14528642838430      8.50958495216742      2.05179990809965
  H   -2.61654354316109      7.53635711136075      1.81568060368950
  H   0.69573575034475      7.85399414990850      0.74271140489029
  H   -0.85250302226836     -0.05300852941155      1.19714058812890
  H   0.79096672181414     -3.57360355701992     -0.71691461846838
  H   4.68763249161803      0.87265725946936     -4.24748167352866
  H   5.63530077184368      2.66038649978789     -5.40812007449673
  H   7.34342001114325      2.43186542075019     -5.85787316230549
  H   6.08693090626010      2.33802374768206     -7.09909620809898
  H   8.69212622067630      0.81296156734403     -7.15958822502069
  H   8.43962100562475     -0.69688709588676     -8.06772612589426
  H   7.41908580853628      0.72657376264895     -8.38423944185880
  H   7.37886414311697     -2.42000167011157     -6.86802708952908
  H   6.72017608366909     -4.84903897319560     -6.04006010333119
  H   6.33908467488443     -7.81719687388695     -4.23069435400077
  H   5.07418106197366     -7.88108641987127     -5.46528409648203
  H   6.66647553977424     -7.19413209621562     -5.86539997348814
  H   4.62298319219520     -7.56665813187936     -2.48146184750456
  H   3.10107684836362     -6.67911417020482     -2.22654734642314
  H   3.35280006244342     -7.62948470834012     -3.71062587153537
  H   3.23070741027064     -4.36638200991192     -2.50173852446176
