62
Coordinates from ORCA-job ./opt_b3lyp_cdz
  F   1.68765292773120      3.35740694116602     -1.46280920613942
  C   1.07529753507617      2.17426322850730     -1.55114352630529
  C   1.80888866041732      1.02854849916850     -1.27091996332857
  C   1.17748331902959     -0.21686554951154     -1.35964460275120
  N   1.83087488831143     -1.36198308207867     -1.09768422683400
  C   1.13827709150250     -2.49465279566667     -1.20165979753313
  N   -0.15442449710915     -2.61154152783530     -1.55115559657409
  C   -0.82546692969795     -1.49630174482742     -1.82184218670376
  N   -2.10471982095939     -1.55528484598010     -2.17857985469571
  C   -2.73680238530103     -0.39707099932906     -2.43523389583923
  N   -2.21010118217812      0.82414347725495     -2.36678891299069
  C   -0.91645106889794      0.91563589260085     -2.01331655718313
  C   -0.26404391099892      2.14973264565640     -1.91847526950021
  N   -0.17703551324016     -0.24450530830891     -1.73014636369586
  N   -4.07470986112798     -0.49324829650936     -2.80746285732300
  C   -4.96014950159151      0.60015733434239     -3.03742825833148
  C   -4.75506649200153      1.98460637650399     -2.95682625950965
  C   -5.83008395128454      2.82746303556166     -3.23236178233129
  C   -7.09847013564173      2.31798837579110     -3.58561267720155
  C   -7.30055472264091      0.93238119936348     -3.66444501399946
  C   -6.22990551657761      0.08192229613405     -3.38909647915012
  C   -6.12980485730316     -1.36490282887797     -3.38337763504895
  C   -7.07136598155367     -2.35541314688845     -3.66257143115816
  C   -6.67897313926224     -3.69929627775770     -3.58391012044555
  C   -5.35231186845452     -4.02741549525986     -3.22919561517312
  C   -4.40572226004802     -3.04440381930546     -2.94677240755589
  C   -4.80252646679686     -1.70171279235186     -3.02365304438519
  C   -7.62480033376234     -4.74323504522779     -3.86585288399151
  N   -8.38961536103734     -5.59069513661535     -4.09546143754132
  C   -8.18054679446195      3.22122670571722     -3.86341677625457
  N   -9.05564027039935      3.95602401401052     -4.08739977744855
  N   1.81232875684304     -3.68048170814301     -0.92363492768101
  C   1.23624218142751     -4.98551600578560     -0.88353844617985
  C   -0.08259704579538     -5.41850589787922     -1.08181380615463
  C   -0.35268076047958     -6.78053366478925     -0.96353733353092
  C   0.66100986425777     -7.71341429741489     -0.65411042686907
  C   1.97818820550580     -7.27630250358118     -0.45365683363829
  C   2.25709596679296     -5.91442940314678     -0.56807527304047
  C   3.49329916498611     -5.17236447550993     -0.41128334347176
  C   4.78929847049967     -5.59021859733972     -0.10925984192717
  C   5.80585671677921     -4.62760352255107     -0.02600977827270
  C   5.50806441323524     -3.26539617775453     -0.24711809630969
  C   4.21573734085985     -2.83959048155428     -0.54800973261881
  C   3.20167832393530     -3.80413489356460     -0.62912094573388
  C   7.15130288809719     -5.02491626235176      0.28352734670613
  N   8.24295361230351     -5.34343616108104      0.53399025782750
  C   0.34099525400219     -9.10953025436642     -0.54300023736532
  N   0.07985029520284    -10.24065860825657     -0.45247040799822
  H   2.85642215304445      1.07561189716401     -0.98290720129702
  H   -0.81504236250233      3.06186028208956     -2.13508086085594
  H   -3.78581979129546      2.38862577390502     -2.69028899711256
  H   -5.69032962896080      3.90788004040337     -3.17534796464766
  H   -8.27941336176007      0.53464193215623     -3.93552881774935
  H   -8.09432206403011     -2.09696579536242     -3.93932016585760
  H   -5.06341533841505     -5.07800255507158     -3.17537459772655
  H   -3.39105975620657     -3.31002461545120     -2.67376335380087
  H   -0.86962733598744     -4.71318596476365     -1.32220425443291
  H   -1.37249779921122     -7.13764803476496     -1.11364851974236
  H   2.76399473319113     -7.99286066731896     -0.21103919213591
  H   5.01559767995550     -6.64393595698063      0.05896338789510
  H   6.31084484782535     -2.52986919321817     -0.17910759640564
  H   3.99999277614119     -1.79060555716552     -0.71171562296107
