66
Coordinates from ORCA-job ./opt_b3lyp_cdz
  O   6.34533675240140      3.85967024549092     -2.99902011074590
  N   6.05861432691694      5.03144710820203     -2.79122128175940
  O   6.72946117705126      5.99520528159371     -3.14213754148357
  C   4.80915251569323      5.31164313029376     -2.04179896969518
  C   4.52696740231719      6.63792477770587     -1.68700392735917
  C   3.37707038956185      6.90308621576648     -0.95193444436114
  C   2.53248078365469      5.84189796520783     -0.59572301971548
  C   2.83413482881219      4.51414679825488     -0.98982238880146
  C   3.99236269089051      4.23002828047095     -1.71894354998112
  N   1.82212078208850      3.64915573689024     -0.48243032891926
  C   0.89535462773198      4.44484440606312      0.24336664885411
  C   -0.26533242551056      4.08368783281248      0.93033389363630
  C   -0.98154683027071      5.11525134207916      1.53576595515799
  C   -0.59968931829747      6.46305925743543      1.48864613252159
  C   0.55884091280831      6.80626791360996      0.80020539834647
  C   1.30884715272660      5.79950675949334      0.17612835075759
  N   -2.21447682840155      4.75473135944106      2.27297409548219
  O   -2.84324211139271      5.66527651038783      2.79969550756652
  O   -2.52978528359770      3.57054940258998      2.31054385921309
  C   1.74146214448125      2.27435487087982     -0.68662399405541
  N   0.82847167089139      1.60384947743363      0.01161319822040
  C   0.77149266490068      0.27222931753898     -0.17964526334471
  C   -0.13375142816419     -0.53427834452394      0.51726706438121
  C   -0.12869070336379     -1.90407959085270      0.28288700293513
  F   -0.99461211710792     -2.66521442210756      0.95529553687249
  C   0.73242842946184     -2.52154469758803     -0.61630903898376
  C   1.64159191836302     -1.73339808431890     -1.32887445421441
  N   2.49252449499404     -2.26679455305673     -2.22581474157989
  C   3.30049141871707     -1.42440442631450     -2.86469760901783
  N   3.37328643345925     -0.09485611014376     -2.69512213018776
  C   2.55772160682604      0.45706444147749     -1.80392389139059
  N   2.60297405405786      1.76569729926808     -1.58156852140769
  N   1.64142025492694     -0.34836030451141     -1.09202214102732
  N   4.17073163997032     -1.96254891591122     -3.80879659008364
  C   4.97946733912574     -1.22433672383985     -4.72023838108462
  C   5.06108747502774      0.15104943039321     -4.95598452866059
  C   5.93963290883755      0.56298519462001     -5.95584103159573
  C   6.73181671468792     -0.31314379138712     -6.71038679683145
  C   6.63125478492730     -1.67910136032787     -6.47178667300746
  C   5.75029619745490     -2.13804963811722     -5.48201037360084
  C   5.41009744252178     -3.47227419885628     -5.03588652836224
  C   5.86534779597968     -4.73781413636656     -5.43180130950028
  C   5.34704987098981     -5.87070541519707     -4.81383050441560
  C   4.38218317887047     -5.70921277869081     -3.81004402349356
  C   3.90185183934751     -4.47075586239855     -3.38682441670022
  C   4.43197884141599     -3.34342785482084     -4.01739648213485
  N   3.83111251972283     -6.91908367301319     -3.15729257759773
  O   2.98267542765811     -6.75997127178811     -2.28668228478569
  O   4.25922029112502     -8.00534828446786     -3.52961811260288
  N   6.02239354450994      2.01601181416129     -6.24410635229184
  O   5.24654328935559      2.75683542427674     -5.65446220342934
  O   6.85630178780101      2.37737976072250     -7.06631464582182
  H   5.21641203547829      7.42439343260246     -1.98850690417072
  H   3.13935735211594      7.92477517518589     -0.65049546551763
  H   4.26106144414693      3.22859959836660     -2.03161407977154
  H   -0.60469091105551      3.05851978459208      1.00630863615332
  H   -1.21633485615548      7.20616890930217      1.99095197621591
  H   0.87887306578732      7.84831685410097      0.74685929466300
  H   -0.81681174845971     -0.07545701011272      1.22885937521145
  H   0.71451584634677     -3.59632580987885     -0.78355252038824
  H   4.48348836590974      0.87956665303800     -4.40050112103824
  H   7.39892602644145      0.09552827298010     -7.46718008473044
  H   7.22655737521747     -2.38500771893885     -7.05362635186646
  H   6.61846701017130     -4.83466462574475     -6.21573269815349
  H   5.66593362168400     -6.87538170884615     -5.08532690827242
  H   3.14949009541491     -4.40720472260785     -2.61104462824543
