70
Coordinates from ORCA-job ./opt_b3lyp_cdz
  F   1.85949235094665      3.41858630802692      0.73315940748119
  C   1.90131706546847      2.23805079649709      0.10835661510203
  C   1.89783230976229      1.08305845137524      0.87945783771475
  C   1.94074621003035     -0.15948683384565      0.23622224040234
  N   1.93765743655327     -1.31276781757058      0.92468563441243
  C   1.97582571393191     -2.44344113294591      0.21952699521900
  N   2.02158593184945     -2.54598664665442     -1.12028787795485
  C   2.02923026366895     -1.42102140339737     -1.82832971372698
  N   2.07777376448791     -1.46660806327351     -3.15592799477033
  C   2.07952087384472     -0.29973855489348     -3.82382132313668
  N   2.03550232230305      0.91903518661029     -3.28550420145882
  C   1.98933674959512      0.99691352612612     -1.94539935587863
  C   1.94581738115242      2.22751146191303     -1.27965586808580
  N   1.98568610266103     -0.17290322512286     -1.16772600086866
  N   2.13242517413004     -0.38141223111859     -5.21024872643920
  C   2.10211712077650      0.71981246258442     -6.11733979973827
  C   2.01017943578431      2.10080275011615     -5.89039655075562
  C   1.99751299902437      2.94852713503288     -6.99692898527551
  C   2.07410862733623      2.44903513075135     -8.30925103157478
  C   2.16584409635437      1.07753153720272     -8.53604702861563
  C   2.17856083869780      0.21494139657941     -7.43584053597187
  C   2.26164233240864     -1.22925613800207     -7.34965191933810
  C   2.35685032728406     -2.21078547937192     -8.34034200817263
  C   2.42435548899279     -3.54744946680080     -7.95264119294480
  C   2.39068891845296     -3.89400941039336     -6.59047478987641
  C   2.29493293941098     -2.92655410819326     -5.59088927912354
  C   2.23015551200280     -1.58074321414206     -5.98016585372081
  C   2.56306129724561     -4.63788757315561     -8.98147753530840
  F   3.81593126556946     -5.15367731014954     -8.99996157559306
  F   1.72682097910501     -5.67283968293698     -8.73150235295901
  F   2.29931729209107     -4.19905764100073    -10.23261745910498
  C   2.04759864147952      3.42178403191290     -9.45786212734525
  F   3.03321842883844      4.34535894437715     -9.35403759770207
  F   0.88235607850583      4.11178563517438     -9.50272241318974
  F   2.19512906078902      2.81093821723769    -10.65393604131997
  N   1.96837967194443     -3.63745214789788      0.93079529046252
  C   1.96138389769411     -4.95155701826638      0.37056496762536
  C   1.95911736586684     -5.38823667422474     -0.96216343864316
  C   1.94801959338682     -6.76184962371980     -1.20171627106174
  C   1.93760101136480     -7.69468926938572     -0.14986323471176
  C   1.94320825219530     -7.26169535889404      1.17452595297116
  C   1.95316110232748     -5.88756916872558      1.43065645484781
  C   1.95917406319280     -5.14426259110968      2.67473226128617
  C   1.95701839061691     -5.56819779900639      4.00661531595741
  C   1.96449070865427     -4.60621483055492      5.01498892075341
  C   1.96754374936257     -3.23817559062080      4.69127578224779
  C   1.96881437742263     -2.80043715551030      3.36739770819662
  C   1.96524569320550     -3.76739083285490      2.35192579802465
  C   1.99741593829340     -5.01418613742660      6.46378356396683
  F   3.21511670000769     -4.79884248848201      7.01815261388642
  F   1.11027844324217     -4.30804206725675      7.20414942599533
  F   1.71281632834225     -6.32434484213168      6.63466258057944
  C   1.89142164437685     -9.16381304428006     -0.47591474625555
  F   2.77722629309142     -9.49057909805718     -1.44626675442809
  F   0.67091902017082     -9.53876990360691     -0.92966594353639
  F   2.16677764263332     -9.93654597344551      0.59854861972267
  H   1.86132546133547      1.11943781562495      1.96561046325030
  H   1.94883630318793      3.14715683556543     -1.85986176693609
  H   1.95297172520721      2.49626292608347     -4.88342840372627
  H   1.92816105168808      4.02588914963282     -6.83717912930017
  H   2.22648117609918      0.68721570543531     -9.55201624014735
  H   2.37655663029781     -1.93851793852882     -9.39581018685959
  H   2.43589452623642     -4.94631797929104     -6.30541276149558
  H   2.26706976592907     -3.20495113110173     -4.54388001779413
  H   1.96966887600489     -4.67794140569323     -1.78058570836595
  H   1.95214722526250     -7.11888915608810     -2.23281078260917
  H   1.94124220067921     -7.98199506966233      1.99285174217816
  H   1.94799625796239     -6.62981355366052      4.25443782269201
  H   1.96390825591369     -2.49856799474515      5.49354571305722
  H   1.96785932640115     -1.74365362665589      3.12892279779517
