91
Coordinates from ORCA-job opt_b3lyp_cdz
  C   3.42399260162899    -12.07378974884519      0.64850621520576
  N   3.94551440852351    -10.93880071500748     -0.08888324145129
  C   4.63463052091324    -11.21194072703597     -1.33706802601032
  C   3.36082531145790     -9.68551394107852      0.10521618585853
  C   3.66651171060980     -8.59309762590397     -0.75005034064661
  C   3.13280861491838     -7.31764865078281     -0.56571604443328
  C   2.25112986173387     -7.10166603044851      0.49885173592636
  N   1.54955342116607     -5.93338670707822      0.93586090900793
  C   0.77451541950990     -6.30547151945946      2.07786578772583
  C   -0.08095023686080     -5.57086800924154      2.90518733128010
  C   -0.70872289896165     -6.21501509176262      3.97175109473420
  C   -0.52342214053173     -7.59558729533770      4.24997041092215
  C   0.35847392048180     -8.31609195540067      3.41664702341844
  C   0.98651850008861     -7.67503547201481      2.34639811408953
  C   1.91972457414090     -8.17655889809914      1.35113161674879
  C   2.45429757254885     -9.45314749553903      1.16099150303355
  N   -1.19786796154923     -8.21567822526192      5.30376464813209
  C   -0.79839461796988     -9.55359576266438      5.69732529465434
  C   -1.85908183377073     -7.39394501637501      6.30106935288633
  C   1.60966522774764     -4.68069563339060      0.36090701170254
  N   0.86692353664318     -3.71391293866223      0.91666559346003
  C   0.92689395923075     -2.49801571982086      0.35424462187099
  C   0.18928960319354     -1.41849104515755      0.85452707905477
  C   0.27513503181240     -0.16347302856312      0.24241407454771
  O   -0.42282547046346      0.90279974486400      0.69712461744328
  C   1.09181356960538      0.04208437410428     -0.87260295418562
  C   1.84087442329068     -1.01632968528156     -1.39511061518177
  N   2.63736146966728     -0.85904449355241     -2.46351521777354
  C   3.31399843381832     -1.93254953067753     -2.88780410163703
  N   3.27253529726142     -3.16672695568497     -2.34477233832157
  C   2.49257611944926     -3.35173575560855     -1.28598243981788
  N   2.41445636143925     -4.54851472252954     -0.71118371447957
  N   1.74120583860157     -2.27159416384120     -0.76660192871614
  N   4.13460708558026     -1.77032560159860     -3.98472498977813
  C   4.94489741067855     -2.77892874302711     -4.59619079705926
  C   5.13018811080637     -4.13377111559449     -4.30086510926768
  C   5.99977739797358     -4.88329288756778     -5.09318140238588
  C   6.71668396664370     -4.32665230443261     -6.18602007636915
  C   6.50146213015976     -2.96382667436777     -6.48076368969622
  C   5.63392792113590     -2.20859813574575     -5.68793297145279
  C   5.24664757292200     -0.80977100944249     -5.76819486771892
  C   5.63609023393297      0.19813930006533     -6.65331265234017
  C   5.10151163012844      1.49730052210488     -6.52021231771568
  C   4.19754896327316      1.72882231238350     -5.44918368347011
  C   3.80862794307743      0.72548430585155     -4.56137166810187
  C   4.33379931016285     -0.56101185358998     -4.72070634851629
  N   5.43908073245158      2.51727334081353     -7.41225353186469
  C   5.09846050957588      3.88873290442547     -7.08000590299733
  C   6.54405850508517      2.30620436857431     -8.32809649683918
  N   7.60845278405288     -5.10025932457319     -6.93243395231723
  C   7.58500739337752     -6.54430068672682     -6.78642623346541
  C   8.12580016529745     -4.56321208904131     -8.17653167476858
  H   3.51736085796756    -11.91631066679002      1.73614747609515
  H   2.35596603277328    -12.28596360077030      0.43054375060168
  H   4.00998573011768    -12.96797021690465      0.39586393062161
  H   5.03749340781483    -12.23362865135661     -1.30751662960624
  H   3.97950167904478    -11.12355124543831     -2.22886548474968
  H   5.48766681513367    -10.52796447012932     -1.47944105856089
  H   4.34573259039359     -8.73346667808293     -1.58947760253508
  H   3.39442218286506     -6.50908357073847     -1.23980466834237
  H   -0.25086626616340     -4.51532342932751      2.72418766632704
  H   -1.36517676399979     -5.61699005131721      4.60206110524540
  H   0.56151200758205     -9.37162541328235      3.58978393899878
  H   2.16047688428947    -10.25299329169068      1.83873078253658
  H   0.25740095157679     -9.61483829430374      6.03573245518257
  H   -1.44256582819742     -9.89506084792347      6.51900070295478
  H   -0.92339027818593    -10.26550234744793      4.86426594695654
  H   -2.33828312420594     -8.04713458265566      7.04307450278976
  H   -1.16659114502388     -6.71134360952136      6.83663979800721
  H   -2.65275343644540     -6.77705880972472      5.84757230484012
  H   -0.44156983705717     -1.60085017002874      1.72473231565187
  H   -0.94666528545872      0.63268607720131      1.46696138877731
  H   1.15907365786898      1.01753829009029     -1.34858197203804
  H   4.60363902483801     -4.59617758875293     -3.47290197840258
  H   6.12071266142844     -5.93629177738586     -4.84358332006347
  H   7.00270341609947     -2.48205457445482     -7.31869696222439
  H   6.35084947549467     -0.03968041509841     -7.43943764893946
  H   3.77716376028062      2.72180436856479     -5.29754568101580
  H   3.11372493316733      0.94265663202184     -3.75771823394372
  H   4.00801579604124      4.01435305173056     -6.97533088278544
  H   5.57010816972853      4.24299287261177     -6.13957460835066
  H   5.42543790908955      4.54697382165496     -7.89655623295330
  H   6.35021508033933      1.44744542448957     -8.99254004494055
  H   6.65829740659568      3.19355820749288     -8.96551107354225
  H   7.51083500494013      2.12139378357575     -7.81407786272809
  H   8.35561174954731     -6.98242236282511     -7.43550454984084
  H   7.81987085173081     -6.84406685524671     -5.75163294762167
  H   6.60758817086255     -6.99717642616265     -7.05465507034358
  H   8.68412620852659     -3.62817257148533     -8.00232514442550
  H   8.82644001941384     -5.28547097653749     -8.61730815622628
  H   7.33406961349284     -4.34697722143127     -8.92466114435984
