94
Coordinates from ORCA-job ./opt_b3lyp_cdz
  C   1.48978550852828      4.80663271099079     -0.97558315160923
  O   1.72815888930037      3.57525948218423     -1.65244606182250
  C   0.99395982539151      2.49319883815344     -1.31356671648625
  C   1.28936459096457      1.32171958635466     -2.02531155811988
  C   0.59599822901220      0.14092707574282     -1.76158095025858
  N   0.85451182317068     -0.99945103121758     -2.42444736083327
  C   0.13593762605142     -2.07635970942111     -2.09399648677215
  N   -0.83292920048055     -2.13319525034785     -1.15527640429052
  C   -1.11130761725828     -1.02115105431550     -0.48625535736485
  N   -2.05843739728274     -1.01853633493226      0.44834767882888
  C   -2.29864169509422      0.13647843572793      1.09708620441588
  N   -1.67065355803338      1.30320261177350      0.89531853480975
  C   -0.71247697105608      1.32669676974912     -0.04270051598286
  C   0.00046514501182      2.50074385082793     -0.32807565131762
  N   -0.39929735498941      0.16826140248091     -0.76643626762444
  N   -3.28660709587027      0.10929337884130      2.06029608837040
  C   -3.70143846575243      1.20398200138386      2.88034865480884
  C   -3.27946414703208      2.53585614278698      2.94308780374860
  C   -3.88413489086972      3.39472186840805      3.86144950516521
  C   -4.90892909367300      2.97007637743153      4.74857384511326
  C   -5.33476644143274      1.62782624835092      4.65822531396948
  C   -4.73044253022760      0.76469860967208      3.74129439675002
  C   -4.97065756114037     -0.63993547426656      3.45466837952533
  C   -5.87941797836434     -1.54394590183968      4.01030351170915
  C   -5.91235364482241     -2.87818460709430      3.55292719220801
  C   -5.02128837578123     -3.23562413470387      2.50584119684664
  C   -4.11345999220562     -2.33604832571406      1.94714657041849
  C   -4.08199856525590     -1.02225367349728      2.42708271820961
  N   -6.78040437444780     -3.81799742933486      4.11302734756726
  C   -7.83185203445875     -3.35602121380740      4.99886325564215
  C   -6.98779009768849     -5.08283888681913      3.43143777744613
  N   -5.46490333700837      3.84813589721080      5.68164993503605
  C   -6.66620709394823      3.44615834571920      6.38867759803964
  C   -5.21119531162897      5.27129810938435      5.55080080927733
  N   0.40194367467061     -3.24878315860008     -2.77249621971658
  C   -0.23276040889522     -4.51405578257925     -2.56486538244632
  C   -1.22886689301950     -4.92385849737200     -1.67202559329644
  C   -1.65067954369111     -6.25320808824400     -1.69690852379839
  C   -1.11797049953971     -7.21194809913216     -2.59967729663908
  C   -0.10028319937024     -6.78518598468835     -3.47836375927981
  C   0.32335137000086     -5.45394826804860     -3.45905811169599
  C   1.33274276498642     -4.76553850686144     -4.24640796050179
  C   2.16756692804431     -5.22508891908175     -5.26780092851122
  C   3.08108381814600     -4.34181118608999     -5.88128740865845
  C   3.08445508824537     -2.99099007842689     -5.44207460936948
  C   2.25037706998405     -2.52765200769235     -4.42427384009989
  C   1.36521102440122     -3.42221407583932     -3.81384563769682
  N   3.95786975154595     -4.77837347114701     -6.87719014929859
  C   3.75277088523396     -6.09022560014827     -7.46108559214355
  C   4.66520537372229     -3.79455089858357     -7.67655864999385
  N   -1.59413865394100     -8.52539106886242     -2.62053520879043
  C   -0.85827424316621     -9.52118980595823     -3.37606359574786
  C   -2.41549829278396     -8.99574414115070     -1.51982362756023
  H   0.45690513378857      5.16049491713992     -1.13521996873069
  H   1.68301139430855      4.71523744241158      0.10692919470554
  H   2.19378667872381      5.52634243865436     -1.41255799157302
  H   2.06209607605994      1.31700772276166     -2.79051667525442
  H   -0.26443252439877      3.38185442471287      0.24890761641794
  H   -2.49787607756289      2.89811683184911      2.28452065793494
  H   -3.53908886769708      4.42733999448799      3.88392568368909
  H   -6.12962034817114      1.24474672637671      5.29602120153876
  H   -6.55069982450580     -1.19994434855723      4.79546144916861
  H   -5.02766195845778     -4.24962488385674      2.10903249154725
  H   -3.44722914508533     -2.64985908285624      1.15075151560275
  H   -8.40228634491871     -4.22113544585770      5.36350800003857
  H   -7.41088449930968     -2.84478260545676      5.88087306369242
  H   -8.54054694766076     -2.65400001713468      4.51080901084307
  H   -6.04615646190031     -5.65069795443630      3.34972584226325
  H   -7.68772895105163     -5.69463504087191      4.01691316815337
  H   -7.40132844659439     -4.96748832728505      2.40772959706954
  H   -6.95379865815876      4.24024451530321      7.09109889831921
  H   -7.52690486457780      3.25001247105412      5.71506882526287
  H   -6.49106617346557      2.53198293925169      6.98028075073579
  H   -5.71478690435984      5.80203007411128      6.37033691810753
  H   -4.13400307019498      5.49326754309145      5.63057815717967
  H   -5.57208809400671      5.69550138714435      4.59038735918100
  H   -1.66351058836843     -4.22175885831760     -0.96860460252148
  H   -2.42355123113913     -6.54527187690478     -0.98763001760169
  H   0.36634887480144     -7.47561146502560     -4.17907011586255
  H   2.09887189814109     -6.26754542124106     -5.57434666451763
  H   3.75950949577240     -2.27118880391244     -5.90250795649966
  H   2.28568744563407     -1.48884339612579     -4.11506614327630
  H   3.82610452929293     -6.88055059860899     -6.69531751633302
  H   2.76767793098932     -6.19896442129411     -7.96210874558118
  H   4.53883030722073     -6.28085339442868     -8.20446894888014
  H   5.31755147971106     -3.16488408920594     -7.04898830237051
  H   5.31033351222803     -4.31557103009354     -8.39718686568265
  H   3.98902248824122     -3.11968134797299     -8.24205389661866
  H   -1.37854173777453    -10.48602887309547     -3.30333100359204
  H   -0.81190760354231     -9.25285771957816     -4.44483431022113
  H   0.18422583041991     -9.66149851530357     -3.01983495573117
  H   -2.70218428685023    -10.03961498378090     -1.70753015694666
  H   -1.90173452063174     -8.94883929876366     -0.53682927686055
  H   -3.34650777112635     -8.41052470571235     -1.43881102695384
