94
Coordinates from ORCA-job ./opt_b3lyp_cdz
  C   1.93481946055355      4.07400443613578     -3.20277727587817
  S   1.07368575454820      4.34203777228890     -1.61657577807351
  C   0.45546998450387      2.73791754391340     -1.19003693578056
  C   0.64870468464576      1.59533197410469     -1.97419227606947
  C   0.12800173948955      0.35847359347503     -1.56540801541143
  N   0.30705561428270     -0.75527626446298     -2.29363290567058
  C   -0.20736540358459     -1.89313883611705     -1.80884281171465
  N   -0.90947658103190     -2.01696309665122     -0.66743304870715
  C   -1.11189927388917     -0.92596145302527      0.06483898988821
  N   -1.80829348613063     -0.99874507447652      1.19209651763861
  C   -1.97615459377442      0.13207832157956      1.90773910351344
  N   -1.49346521305453      1.33769600052539      1.59116415804139
  C   -0.79441371143917      1.44240072933493      0.44742329110573
  C   -0.26298631786983      2.65941402654100      0.01349738610634
  N   -0.58379932193914      0.31108028332685     -0.35918725231362
  N   -2.71463752338607      0.01636857805890      3.07191056764708
  C   -2.89561974593133      1.03332999127416      4.06661079417717
  C   -2.38479683469162      2.32994025357326      4.12771692453506
  C   -2.70374906383616      3.14421659708019      5.24243627345083
  C   -3.51181634854128      2.60690303396667      6.27893576508255
  C   -4.00865536278803      1.30918075099375      6.19992479370691
  C   -3.70941716205419      0.50751090187158      5.09550067641250
  C   -4.05707038983682     -0.85204874880032      4.73947062794653
  C   -4.83785947121743     -1.82845748626990      5.35871504786241
  C   -5.01915368545528     -3.07089289477587      4.74924743613002
  C   -4.40899305358919     -3.36984510737535      3.50842180912471
  C   -3.60619979413445     -2.38612759319887      2.88428188159972
  C   -3.44273236266858     -1.14693692534205      3.49867197717448
  N   -4.54235274886383     -4.63849574416026      2.90222178889479
  C   -5.31695236874734     -5.64593393696774      3.60351748336419
  C   -4.73276797173776     -4.69717539692464      1.45465233272860
  N   -2.23522834183126      4.45613419233158      5.30761792311449
  C   -1.23468316179369      4.89867731996969      4.35430735148723
  C   -2.35778490521752      5.19324379947262      6.55142604113040
  N   -0.00727843373628     -3.05321361519465     -2.53574890230856
  C   -0.32567540222907     -4.38562514622987     -2.10080107831020
  C   -0.87333632648494     -4.83771258823524     -0.90283393946963
  C   -1.06203392863877     -6.22617926586979     -0.70628501298808
  C   -0.69836044712705     -7.12074161756640     -1.74047476503022
  C   -0.16150243092339     -6.65240302215444     -2.94054141344206
  C   0.03845644534794     -5.28486287620280     -3.13150655146171
  C   0.58616851742482     -4.50940660077192     -4.22454004242352
  C   1.07697228984789     -4.85578444847481     -5.48587355500912
  C   1.53546797942807     -3.86948665127863     -6.35436923676260
  C   1.52317898426252     -2.50096691749660     -5.97741117630963
  C   1.01251024985100     -2.14313529105503     -4.70541475430069
  C   0.56164495599570     -3.14733237197299     -3.84834043881048
  N   2.01528211169108     -1.51765884505995     -6.83720026001431
  C   1.77191843664534     -0.12212528359270     -6.52560480885829
  C   2.29764148715966     -1.86034868751744     -8.21888248634773
  N   -1.65058824738042     -6.67948279797624      0.49379971497190
  C   -1.89574989713627     -8.10311340251543      0.63394744654505
  C   -1.23458824801573     -6.05828708342571      1.74935342782444
  H   1.23977454568898      3.72448128527760     -3.97989580463970
  H   2.32628483586863      5.06126420451504     -3.48623719764756
  H   2.77361689342466      3.37220073173323     -3.08840319220525
  H   1.20057445586989      1.60000450854345     -2.90981925298024
  H   -0.43403124909025      3.53198396109659      0.64170481181055
  H   -1.76600797175243      2.69246919873026      3.31916423679893
  H   -3.75656153441655      3.20687705476360      7.15370757136434
  H   -4.62778138281390      0.91880610583497      7.01116757603628
  H   -5.32479313559780     -1.61984272537289      6.31436622052139
  H   -5.65323706393575     -3.80484978043086      5.24400041169363
  H   -3.09640203274227     -2.58968622245878      1.95222060797604
  H   -4.94596965361625     -5.77695423058517      4.63104362772053
  H   -6.40426748221528     -5.41605125357647      3.65367887948923
  H   -5.20324730513768     -6.60633001055910      3.07805443721806
  H   -5.78595955958699     -4.49475200911644      1.16273376007067
  H   -4.09264866085245     -3.97265021151572      0.93969197205302
  H   -4.45104367760601     -5.69591842357013      1.08696851187979
  H   -1.00066624395419      5.95505798796188      4.54341377102606
  H   -0.29089296071524      4.31787232798032      4.41103165025921
  H   -1.61014021402957      4.82263263061388      3.31986074283509
  H   -1.81852611011526      4.71743344030603      7.39682811647963
  H   -1.95079086086371      6.20383398335661      6.41161604668899
  H   -3.41435961298093      5.30319644672509      6.84901774958548
  H   -1.17280634731362     -4.12114173905015     -0.14987195666567
  H   -0.82040788542785     -8.19477702903168     -1.60962345757729
  H   0.11701341502554     -7.36404756203799     -3.72148799469371
  H   1.09575282629385     -5.90191529275280     -5.80056587569090
  H   1.90695303006947     -4.16821910378018     -7.33303752663949
  H   0.97515262350525     -1.11386635032314     -4.37765224288375
  H   2.22116235403293      0.15173899035325     -5.55584688437946
  H   2.24121958609183      0.50507972160321     -7.29576949509476
  H   0.69291072117955      0.13372505448189     -6.47798950894661
  H   3.07008515517377     -2.64478702937241     -8.28577903223549
  H   1.40504297822457     -2.21938946221906     -8.77235479164656
  H   2.68708965186321     -0.97318293288420     -8.73650563895888
  H   -0.96601385760112     -8.70838814736238      0.71593823338618
  H   -2.48440499864006     -8.27059956526691      1.54871213659434
  H   -2.47926391598328     -8.48349147884059     -0.21779340285435
  H   -0.27809350166780     -6.48001191190205      2.12690687442832
  H   -1.10616758434269     -4.97658602696421      1.63411944966504
  H   -2.01328940428427     -6.21185416357538      2.51230305039126
