96
Coordinates from ORCA-job ./opt_b3lyp_cdz
  C   5.08718079822284     -9.26412942453291      5.40977997229569
  N   4.83552623401622     -9.15318977770277      3.98561505436860
  C   4.72444440657328    -10.38543308995147      3.22649528667037
  C   4.22521757172661     -7.99591999091761      3.49816388526464
  C   3.74574203080589     -7.92645619923592      2.16274594718388
  C   3.16436811739484     -6.77637608900708      1.62875234887154
  C   3.03699528069044     -5.64447238326368      2.44081967073255
  N   2.49328460486377     -4.34497762350317      2.18865298531268
  C   2.61890391050761     -3.58932777619695      3.39664165457609
  C   2.26689364493099     -2.27364471278533      3.71504394152053
  C   2.51979978360925     -1.79983770607834      5.00245650470482
  C   3.11388953378527     -2.60279356437118      6.01253418436486
  C   3.48031334621221     -3.92116468687367      5.66682953727957
  C   3.22564500563209     -4.40004502733900      4.37978892619796
  C   3.49167908765273     -5.69563074000538      3.77590506884068
  C   4.07034709653508     -6.85040586307490      4.30751225213358
  N   3.31746662858738     -2.10595835968273      7.30106071759659
  C   4.14137435950625     -2.86644087578144      8.22131820885286
  C   3.18816418146669     -0.67957105903605      7.53831272152588
  C   1.94923738154408     -3.90263691794658      1.00235138263056
  N   1.49798475955002     -2.64103323349240      0.96756808919890
  C   0.97103169543988     -2.20964765043886     -0.18564557790880
  C   0.47483249970528     -0.89959995703915     -0.31046859611213
  C   -0.06379239617476     -0.49587914132718     -1.53101333202639
  O   -0.58959460163698      0.75388100473570     -1.80419170566011
  C   -0.65593599471505      1.80808033522278     -0.91603878580493
  C   -1.29924114512531      2.98157906187670     -1.60857570688120
  O   -0.26271828306814      1.78425100024550      0.22036775054025
  C   -0.12329982313179     -1.35651651216444     -2.63107413662670
  C   0.36378776536264     -2.66286352483746     -2.53021029953893
  N   0.32344190902492     -3.51765563377699     -3.56354501645877
  C   0.81453743343330     -4.74608933008770     -3.35883628311722
  N   1.34940616544151     -5.20891228528463     -2.21040837541728
  C   1.40318359692426     -4.38173456261859     -1.17219479298103
  N   1.92169881154080     -4.78442062314717     -0.01677631958604
  N   0.90478787277194     -3.06236677908181     -1.29703209762358
  N   0.77320560122985     -5.62831767961754     -4.41824142866407
  C   1.23299018679236     -6.98351430021213     -4.41348805475501
  C   1.80804347998237     -7.77091868179417     -3.41018942983122
  C   2.15471811291800     -9.08953777411083     -3.70457137909897
  C   1.95783664213537     -9.66827730490773     -4.98696130690135
  C   1.35924423367324     -8.86466190926589     -5.98016386560287
  C   1.01295641893183     -7.54267776405005     -5.69045286898508
  C   0.39831246516950     -6.51757181641668     -6.51789574731480
  C   -0.01463159317150     -6.54458225929045     -7.85187607411632
  C   -0.59891208362936     -5.39820959849955     -8.43150401779897
  C   -0.71088193362107     -4.23721227188607     -7.62076951999530
  C   -0.29669300425888     -4.20557343621972     -6.28890971866032
  C   0.26141510007655     -5.35757097046044     -5.72537565066505
  N   -1.06006778888576     -5.40474900497215     -9.74959908172268
  C   -1.38704967055449     -4.14404850754329    -10.39055573040904
  C   -0.70204779612782     -6.51753164495060    -10.60877565999678
  N   2.35215842797398    -10.98116188560601     -5.25325363614160
  C   2.68579531411620    -11.85736543472525     -4.14479690211422
  C   1.91897196913744    -11.60289103784798     -6.49008929647622
  H   5.75733725934399     -8.46023810956782      5.75799057376984
  H   4.16286267375243     -9.21978301346857      6.02354918411341
  H   5.58899409354451    -10.21980455079207      5.61375777983023
  H   5.27187251656208    -11.18024726798187      3.75143194214346
  H   3.67580396965738    -10.72148130561914      3.08629732093438
  H   5.17837715217759    -10.28021634095929      2.22707978213872
  H   3.82746979748110     -8.79415771917258      1.50995703821165
  H   2.81330342127543     -6.76340871826922      0.60249308532204
  H   1.80904399061664     -1.62795827142953      2.97381976174207
  H   2.24023664137433     -0.77018854604549      5.21992727896578
  H   3.95960884472525     -4.58062688670625      6.38850130359924
  H   4.39723023015172     -6.84534288757390      5.34601454576834
  H   3.71296708797580     -3.86630230639008      8.40411541818606
  H   5.18285547412386     -3.00796606745023      7.86326157247823
  H   4.17852401357161     -2.34483186064688      9.18732809951293
  H   3.36674733997478     -0.47566535359001      8.60295001345700
  H   3.90054168365482     -0.06949040288579      6.94464396564359
  H   2.16997370943187     -0.32736500825569      7.30377696295716
  H   0.53085421349817     -0.24844635490814      0.55237478859037
  H   -2.30811022579648      2.70568232217463     -1.95332109981442
  H   -1.35448753107743      3.82781738957540     -0.91377484134876
  H   -0.71399561752907      3.25767531909241     -2.49960890929393
  H   -0.54697682046077     -1.02816619729721     -3.57703405911805
  H   1.97806590956847     -7.36597356948676     -2.41837356961419
  H   2.59589973020329     -9.68061304467597     -2.90350403603131
  H   1.15990921647740     -9.25429740207844     -6.97706029574914
  H   0.12110335103569     -7.45962795618259     -8.42607012657423
  H   -1.13669828713325     -3.32428981269340     -8.03431896551198
  H   -0.40223203303963     -3.29958994557354     -5.70237449910566
  H   -2.19898715375005     -3.62389043556691     -9.85575195405356
  H   -0.52540637129565     -3.44698102380710    -10.45497592691311
  H   -1.74392412348238     -4.34270615562862    -11.41043386931520
  H   -1.08406856015262     -7.46964275945101    -10.20393841476138
  H   -1.16262304670796     -6.37353352227801    -11.59561782211638
  H   0.39376307860757     -6.62819817541128    -10.74994034526158
  H   3.54667163441404    -11.47011138841755     -3.57475641556330
  H   1.84721382318256    -12.00131779817446     -3.43196633550158
  H   2.97269510167501    -12.84144850880824     -4.54001147684767
  H   2.33556887225439    -12.61766250745633     -6.54871966887824
  H   0.81466158421442    -11.67550020570445     -6.58192930106671
  H   2.29023600438480    -11.04416066956292     -7.36557418059309
