26
Coordinates from ORCA-job ./opt_b3lyp_cdz
  C   0.71497198627325     -5.14218675684256      0.19537535686648
  S   1.98395984939838     -4.02450051085159     -0.49776622684967
  C   1.31099411286153     -2.43350210867380     -0.11236412147529
  C   2.02605514530156     -1.30194046153299     -0.49824653951657
  C   1.49693841165381     -0.03679579964134     -0.19518816249757
  C   2.09090427685787      1.19545379976495     -0.51335049345009
  C   1.43567875289182      2.36716873225352     -0.14128474290509
  S   2.18994909243731      3.91638141111986     -0.54585707202922
  C   0.97803428107120      5.10670529343163      0.12829039126851
  N   0.26064218582423      2.39315598009221      0.50870106128557
  C   -0.32384186391573      1.24064332463934      0.82229765422901
  N   -1.50003447783426      1.25265931142803      1.47283340381844
  C   -2.03286167306841      0.06661838517680      1.75747668191516
  N   -1.56250504295347     -1.14881473262813      1.48711042639423
  C   -0.38745121074318     -1.20569048489015      0.83690117976629
  N   0.13632636061097     -2.39067215787465      0.53738408960033
  N   0.26903828767562     -0.00081951687253      0.48403326081629
  H   0.61661010701632     -4.98428420398180      1.27677224177059
  H   -0.25269557471091     -4.97103685175554     -0.29289190113376
  H   1.07970246191082     -6.15763279732915     -0.01520824293778
  H   2.97719635631726     -1.36834145633353     -1.02470846374760
  H   3.04396865185086      1.20599910583762     -1.04042326002594
  H   0.86971381827739      4.96936187416732      1.21155577466620
  H   1.39417010575857      6.09928008237300     -0.09558233223416
  H   0.00389003582505      4.97776180771394     -0.36002620066951
  H   -2.99231443658781      0.09471873121010      2.28823623707667
