24
Coordinates from ORCA-job ./opt_b3lyp_cdz
  O   3.51972636641602      1.29072107703468     -0.45006425627124
  C   3.91197859493734     -0.01669894479560     -0.35821608666080
  C   2.94676808750610     -0.82372742135458      0.17160580113643
  C   1.82933212562088      0.04205119602501      0.44701483113243
  C   2.24477555359394      1.31237495261791      0.04556269259334
  C   1.40534671590092      2.41909191867023      0.16705411469560
  C   1.62451630661749      3.75434410534089     -0.16947977217885
  O   2.75636546519449      4.29560759669886     -0.71495993498197
  C   2.47814169608291      5.62769194563184     -0.85571943547131
  C   1.22466849115244      5.95570643337761     -0.42575850255312
  C   0.64051172168366      4.72254581634245      0.03484366886179
  N   -0.57189591832009      4.46525227821112      0.55864878790162
  C   -0.82592362618268      3.20309459268668      0.89503319779369
  N   -2.02453909049114      2.90001325981045      1.42188783795757
  C   -2.24550607223428      1.63088604349610      1.74655188282838
  N   -1.43637866341941      0.58415326265636      1.62567509580227
  C   -0.21641125579759      0.80324297883634      1.10630000704194
  N   0.61903500658597     -0.22369531723491      0.97147443937039
  N   0.14082613863488      2.14609225419014      0.71422879708562
  H   4.91862344024020     -0.21717920915916     -0.71507820092943
  H   3.00879286662881     -1.89372821946072      0.34824863341421
  H   3.28347871604391      6.21938592135504     -1.28257586980604
  H   0.76488276452951      6.93984552465208     -0.43015201905857
  H   -3.23306543092456      1.41765795437106      2.17368429029634
