38
Coordinates from ORCA-job ./opt_b3lyp_cdz
  C   3.10946126570850      6.34434111382564     -0.04745526056889
  C   1.73247615633626      6.16620073817754      0.12092520802425
  C   1.18847445776461      4.88221000210749      0.15467425289063
  C   2.01407039845321      3.74921356711280      0.02056525865023
  C   3.39879012334103      3.94168484676899     -0.14860047461396
  C   3.94039399652411      5.22659062904652     -0.18220907817984
  C   1.39959066437483      2.39614204402427      0.06148174994903
  C   2.14852671022753      1.22669386895562     -0.05660335968152
  C   1.50213419184262     -0.02202613035604     -0.00935985008020
  C   2.13876002872899     -1.27211791570508     -0.11592656618115
  C   1.38086077947920     -2.43998775863019     -0.05171517124322
  N   0.03827741623806     -2.40920010611301      0.10886471185389
  C   -0.59120828220848     -1.24600627263326      0.21100960505099
  N   -1.92692851430621     -1.22030851107892      0.36981416902838
  C   -2.49004322571079     -0.01771666068332      0.46698195585099
  N   -1.91723913901628      1.18363726943522      0.42922293470172
  C   -0.58149962145189      1.20642719991835      0.27015495728549
  N   0.05694409734351      2.36823585424399      0.22204092543817
  N   0.11873756485433     -0.02055110736063      0.15641706081922
  C   1.98487373953087     -3.79438644367732     -0.15562600576549
  C   1.14676882428451     -4.92510054279313     -0.10735941312117
  C   1.68056023928599     -6.21022934078067     -0.20341008728706
  C   3.05976671852076     -6.39181014806153     -0.34831206485728
  C   3.90326687690584     -5.27639067126022     -0.39624417005631
  C   3.37181227912566     -3.99033409649290     -0.30095114077114
  H   3.53553965362946      7.35020129122471     -0.07398283421279
  H   1.07695688434270      7.03383255649690      0.22670683697305
  H   0.11789342930623      4.72603498993157      0.28473165283363
  H   4.06959569982399      3.08816113182132     -0.25666400223761
  H   5.01698661768111      5.35643170605548     -0.31442504290189
  H   3.22812541998815      1.23086900025978     -0.18520653038840
  H   3.21788426050635     -1.27856946542540     -0.24840600747589
  H   -3.57926400098665     -0.01652264804973      0.59629533274088
  H   0.07474513352968     -4.76629740657738      0.00663446566204
  H   1.01532366630106     -7.07604929470416     -0.16469229449211
  H   3.47789796314554     -7.39856348236820     -0.42326444539099
  H   4.98185509094261     -5.40896344496403     -0.50788806473465
  H   4.05260243561276     -3.13871636169105     -0.33888921351108
