40
Coordinates from ORCA-job ./opt_b3lyp_cdz
  S   1.81133369420661     -3.95104640894160     -1.17543474370979
  C   0.61251003305988     -5.15496231148864     -0.58474954460185
  C   1.04428355327748     -6.12919988558937      0.32445007740374
  C   0.16220851118298     -7.13386651882435      0.73493459915139
  C   -1.14757161720890     -7.15812447491560      0.24841682263400
  C   -1.57559659810324     -6.17969228291261     -0.65599950128021
  C   -0.69752349935791     -5.18149068669694     -1.08204172352487
  C   1.22865277515876     -2.39545256287697     -0.52421408765573
  C   2.04261109357021     -1.28398648504866     -0.72807676961767
  C   1.60706549805171     -0.03780402905981     -0.24735314448853
  C   2.30464026361178      1.17542912160037     -0.37033295602838
  C   1.73252829452302      2.32721344430259      0.16401520481150
  S   2.66727704566209      3.83874458056456      0.00608287505508
  C   1.56409884051250      5.10942547296549      0.64162581818303
  C   1.09025982293726      6.08190605838286     -0.24827074106879
  C   0.30368977720799      7.13478710912322      0.22993346554862
  C   -0.01700263392888      7.20916059554068      1.58804126238622
  C   0.45486665259931      6.23248667895967      2.47230635083083
  C   1.25226582689848      5.18579978219640      2.00584400722037
  N   0.55184222392715      2.35582178251608      0.79362119589905
  C   -0.13104470990415      1.22170395243032      0.92313878465333
  N   -1.31767478754069      1.23264543310826      1.55332337193106
  C   -1.95044310413754      0.06544684957655      1.64863038134987
  N   -1.57198887351588     -1.13108292535536      1.20485131247785
  C   -0.38838084586750     -1.18886320096494      0.57157733820534
  N   0.04786326262292     -2.35544956789151      0.10455965984737
  N   0.37014799365048     -0.00187123437285      0.41166540514871
  H   2.06551662611206     -6.09720046051925      0.70881827574717
  H   0.50072374895460     -7.89414344703567      1.44285026817848
  H   -1.83755643535770     -7.94028376771268      0.57396316170101
  H   -2.59974695686744     -6.19464334678571     -1.03615562108757
  H   -1.02552272437547     -4.42083834607758     -1.79075192303858
  H   3.00211263012939     -1.35142537465107     -1.23912614748367
  H   3.26579481764088      1.18712977608881     -0.88260058003250
  H   1.33571867513128      6.01103813455466     -1.30959050060909
  H   -0.06396735781187      7.89360222804525     -0.46489513551742
  H   -0.63606498347729      8.02918992976439      1.95972243606234
  H   0.20379073669888      6.28668983292305      3.53421284682866
  H   1.62646173297901      4.42611111553512      2.69238601386155
  H   -2.91794900284815      0.09350543954242      2.16443218462889
