40
Coordinates from ORCA-job ./opt_b3lyp_cdz
  N   1.41570431511788      2.33010142051324      2.84982468253127
  C   1.32058673645751      1.66623906114228      1.67795315507198
  N   1.58641214128456      0.34760954461793      1.72353529052645
  C   1.49361038531960     -0.32203862730877      0.57561086920944
  N   1.74306023174174     -1.63063375119249      0.55319376588124
  C   1.65038400779145     -2.31554958783650     -0.60526925311739
  C   1.29743127786792     -1.69693014180658     -1.80465090066163
  C   1.02793814083035     -0.31746224781078     -1.81871022079738
  C   0.66368362530305      0.42493296645879     -2.95530351927686
  C   0.42321384719819      1.79357195532020     -2.83363998882884
  N   0.52688657893016      2.43636821649300     -1.65220807330803
  C   0.86951108220690      1.76284288222312     -0.55487607351664
  N   0.96991651163082      2.40426027700277      0.60843023979176
  N   1.12970170468676      0.36838443101638     -0.61016123952677
  C   0.03415797569651      2.64130460800684     -3.99439875118909
  C   -0.21881249916910      4.01117867042093     -3.79006898853626
  C   -0.58687309500877      4.83396739936502     -4.85477231296199
  C   -0.70876659763860      4.30653844226709     -6.14448506758770
  C   -0.45875879592409      2.94718295964209     -6.36106675144792
  C   -0.09107976335859      2.12269465706645     -5.29722026481313
  C   1.94967522852697     -3.77154706131093     -0.51654244263208
  C   2.30121392773674     -4.32553248035440      0.72919400554629
  C   2.58806527542938     -5.68548733351565      0.84850356736881
  C   2.52968711717510     -6.51970583902499     -0.27268835878872
  C   2.18149292195136     -5.98162026836968     -1.51624852270087
  C   1.89438029876750     -4.62161731421202     -1.63740408945007
  H   1.68991329217655      1.82521508688498      3.68114217049843
  H   1.24048353392736      3.32516729418059      2.86792764861835
  H   1.21908461169359     -2.23650740318821     -2.74509123683462
  H   0.58020844445353     -0.10596238117257     -3.90024957123565
  H   -0.11842837366956      4.40553933568061     -2.77916707578543
  H   -0.77982796801004      5.89469445070901     -4.67683015069401
  H   -0.99683940324722      4.95096168558552     -6.97867644896180
  H   -0.55010542182715      2.52599544752060     -7.36500599808502
  H   0.10003646924266      1.06700674213026     -5.49484502113010
  H   2.34168391415064     -3.66125491705997      1.59209871114453
  H   2.85911702972323     -6.09741806831214      1.82363275328848
  H   2.75427070229805     -7.58507660502576     -0.17948565077981
  H   2.13300438688006     -6.62500672776376     -2.39792098662172
  H   1.62553620165730     -4.22911677898341     -2.61911990020954
