38
Coordinates from ORCA-job ./opt_b3lyp_cdz
  Cl  1.25976372635770      2.47191397766650      3.19277376135264
  C   1.18125450589831      1.61728846973636      1.66102814447179
  N   1.45832218300287      0.32660507519542      1.73053558495003
  C   1.40534769450831     -0.35065934650127      0.56804172587302
  N   1.66923275505318     -1.64713877905319      0.55106062993939
  C   1.61843948336343     -2.33280900678666     -0.61593927793430
  C   1.29310605326809     -1.70781652418622     -1.81808953119233
  C   1.00612858383462     -0.33063313296248     -1.83222326982027
  C   0.66412891094965      0.41896448380635     -2.97242838163216
  C   0.40120565712564      1.78186198269376     -2.84925279946664
  N   0.46780467790548      2.41373029116873     -1.65311152350593
  C   0.78847538119571      1.73451530148912     -0.56372372227963
  N   0.85456897567753      2.36751168537304      0.62275746022760
  N   1.06579513665861      0.34672808794574     -0.61690339837111
  C   0.03309474036088      2.63664588314735     -4.00709930054122
  C   -0.19734386828805      4.01069327847853     -3.80058868555109
  C   -0.54379490228000      4.84092296461928     -4.86652111991575
  C   -0.66754804245908      4.31658921537837     -6.15718500020091
  C   -0.44212421235281      2.95277430632197     -6.37520212016204
  C   -0.09517498102496      2.12053981124506     -5.31133591537573
  C   1.93240294213233     -3.78178480248241     -0.52321862142614
  C   2.27146010076435     -4.33230494473459      0.72808065632567
  C   2.57299966982086     -5.68871752368216      0.84930059360653
  C   2.54124769366069     -6.52107630236101     -0.27419314827544
  C   2.20475477834190     -5.98636111079062     -1.52284387730852
  C   1.90325526668295     -4.63043328016277     -1.64695399228669
  H   1.25000173890716     -2.24108696600249     -2.76446792215464
  H   0.61816692357380     -0.10388385536376     -3.92448045800229
  H   -0.09772325424137      4.40405260815124     -2.78930465303175
  H   -0.71851475601884      5.90451176387636     -4.68835211226680
  H   -0.93919688938817      4.96709299074936     -6.99202205150142
  H   -0.53764627515481      2.53493724599124     -7.37995465928008
  H   0.07313656664981      1.06100146799203     -5.50924489343389
  H   2.29128634352301     -3.67106469596213      1.59394078382636
  H   2.83436525991361     -6.09873090946804      1.82759858413374
  H   2.77727017174526     -7.58368603039518     -0.17905176452979
  H   2.17660302413174     -6.62960254771420     -2.40528139941075
  H   1.64252823620003     -4.24095113241385     -2.63208432584643
