38
Coordinates from ORCA-job ./opt_b3lyp_cdz
  F   3.61456366520723      7.56433612291893     -0.07509233641019
  C   3.09187143208272      6.32304622045316     -0.04377336297802
  C   1.71828475366732      6.16745843304809      0.12622079494276
  C   1.18707091810548      4.88006898167608      0.15730142125163
  C   2.01512715521415      3.74801725406507      0.02068799792628
  C   3.39908239923353      3.94642248256489     -0.14973699514006
  C   3.94337264359039      5.22859466348974     -0.18291675276898
  C   1.40401091477948      2.39597331430395      0.06047563977898
  C   2.15372601844938      1.22658991865022     -0.05721070111637
  C   1.50739669155558     -0.02200967826072     -0.01075416695224
  C   2.14391653458207     -1.27200406829561     -0.11690232236816
  C   1.38521898863196     -2.43978816732800     -0.05334082957851
  N   0.04251963597146     -2.40896684833294      0.10627006363493
  C   -0.58685485771072     -1.24554529634183      0.20800908748473
  N   -1.92237164679007     -1.22009185869907      0.36570521919885
  C   -2.48594599958580     -0.01763826950781      0.46277600477800
  N   -1.91261479550112      1.18355638113979      0.42576152847907
  C   -0.57710275596474      1.20606236182423      0.26759074214119
  N   0.06125009516938      2.36807727015040      0.22009900476374
  N   0.12343488654508     -0.02051047543447      0.15399361593338
  C   1.98588895388652     -3.79318820886909     -0.15605721688814
  C   1.14561986824795     -4.92320367830187     -0.10232196895237
  C   1.66663088801482     -6.21176754118373     -0.19563863782473
  C   3.04241896946480     -6.37057768657432     -0.34338915676323
  F   3.55546251945676     -7.61297768759119     -0.43406994323732
  C   3.90603654818423     -5.27822976263401     -0.39962680501321
  C   3.37179643232581     -3.99485817933178     -0.30550543647945
  H   1.08543877108096      7.05014791662469      0.23139829090254
  H   0.11699302650174      4.72198507517813      0.28820948144939
  H   4.07435916890555      3.09724560589950     -0.26034408596896
  H   5.01377664948593      5.39313342535326     -0.31470129696581
  H   3.23356299400660      1.23028572373680     -0.18459454782404
  H   3.22329236130710     -1.27801420785010     -0.24807264219290
  H   -3.57517179867210     -0.01642878890694      0.59140317194979
  H   0.07428858868867     -4.76263993654370      0.01455926551573
  H   1.02420724258213     -7.09289356636339     -0.15551836216340
  H   4.97796034923175     -5.44530710350078     -0.51482906118373
  H   4.05681179006915     -3.14738014122477     -0.34872470136147
