41
Coordinates from ORCA-job ./opt_b3lyp_cdz
  F   2.54235480436204      2.37998214137408      3.77690828614067
  C   1.62972501995874      2.50661961725178      2.79067101760623
  F   1.57997202226954      3.80701719796372      2.44369840295762
  F   0.43500225404021      2.16456456268090      3.28798312549013
  C   2.03011503691516      1.64177256294922      1.59034054845186
  N   1.23468179090970      0.61959581172128      1.31395862061972
  C   1.59763966812025     -0.15092778053350      0.26673129222728
  N   0.85451468726706     -1.18970006917777     -0.07099996591708
  C   1.21381156269556     -1.96729703192784     -1.12264701845610
  C   2.35877828255609     -1.70001040045378     -1.86811696505562
  C   3.17124021293219     -0.60011115684070     -1.53217722784603
  C   4.34900557575580     -0.22464386929127     -2.20269367182626
  C   5.06570399092322      0.88952903752061     -1.76918263191688
  N   4.65674947582476      1.62822352750895     -0.71054003890812
  C   3.55229290314197      1.29943283068375     -0.06013159784903
  N   3.14764010034574      2.03547286308722      0.99066852204328
  N   2.77541558906433      0.17852386831428     -0.44760281914762
  C   6.31644980594276      1.34596489850695     -2.42666870157983
  C   6.98134151187856      2.48156479561757     -1.92424109320244
  C   8.15818052179477      2.93644240340972     -2.51879835920254
  C   8.69329058122916      2.26783354526113     -3.62462390928998
  C   8.04201762020584      1.13841626760066     -4.13323067855476
  C   6.86527763052122      0.68136836745714     -3.54074436217662
  C   0.30961229160590     -3.10760479322184     -1.41627169867411
  C   -0.83096656134117     -3.30443504094701     -0.61348207918742
  C   -1.70047062552204     -4.36608584651692     -0.86323820261197
  C   -1.44873547511185     -5.25041014120132     -1.91710815505568
  C   -0.31869898990683     -5.06558911666566     -2.72176656041522
  C   0.55224011890661     -4.00501178497544     -2.47453462727618
  H   2.66392389860228     -2.31039362908922     -2.71456666668788
  H   4.66149914891849     -0.82996234058379     -3.05001697785493
  H   6.55184357492926      2.99153335533440     -1.06238966683405
  H   8.66089913594291      3.81883455053328     -2.11622605912277
  H   9.61518884655575      2.62433903899813     -4.09032675005518
  H   8.45327807555819      0.61060405790513     -4.99663551517639
  H   6.37843856068793     -0.20130307204045     -3.95794726203026
  H   -1.01352863061670     -2.60728614879761      0.20382980351880
  H   -2.58049668289127     -4.50387647258643     -0.23079259526318
  H   -2.12996234565910     -6.08203258401595     -2.11254933941384
  H   -0.11478863428887     -5.75188443121587     -3.54675336838848
  H   1.42548364497623     -3.88454959159875     -3.11729505408017
