46
Coordinates from ORCA-job ./opt_b3lyp_cdz
  C   5.65600162324275      2.82997144419199     -2.51505179814257
  C   4.69186015167858      2.81614030837384     -1.54210672906648
  N   3.84123126441443      1.74083319836253     -1.80286658157198
  C   4.27977190124779      1.07769065757222     -2.95001375972189
  C   5.39496710719679      1.72879388019326     -3.40684616868456
  C   2.73285463651541      1.38638713622341     -1.04065102405409
  N   2.05132343426419      0.31977166586848     -1.46619973804801
  C   0.98152700397506     -0.03899270451290     -0.74694628607170
  N   0.26224782969441     -1.09144830808062     -1.11669185367708
  C   -0.81953202914593     -1.45861358880610     -0.39321563482215
  C   -1.21398974256608     -0.75897111541966      0.74630784495578
  C   -0.47364841155953      0.36073741220175      1.16516273100915
  C   -0.76182176851755      1.15124522755813      2.29180944238331
  C   0.05528819570686      2.23873544237612      2.59766072818650
  N   1.12748556467967      2.56067999807506      1.83926098295298
  C   1.42571778931567      1.83366930524317      0.76953105314480
  N   2.48772162564579      2.15664260624362      0.02235431021067
  N   0.63590240120147      0.71582939089846      0.40172966110977
  C   -0.18850211364723      3.11806009947912      3.77183239176817
  C   0.69350616501513      4.18621523889126      4.02527788297644
  C   0.49411932385086      5.02920024520540      5.11857225696644
  C   -0.58896299459333      4.82346400769422      5.97924885683361
  C   -1.47311524163496      3.76624579105423      5.73776482935592
  C   -1.27540270545599      2.92174583724426      4.64535002001404
  C   -1.55340709452770     -2.65089307992766     -0.89445911050859
  C   -1.09849396525435     -3.29786504846154     -2.05958198156449
  C   -1.76388506534260     -4.41839364741879     -2.55694021235238
  C   -2.89518986333624     -4.91520273752456     -1.90157985353022
  C   -3.35700051510953     -4.28169593143883     -0.74263013930204
  C   -2.69334519761539     -3.16089819696125     -0.24367382265409
  H   6.46859031836598      3.54942389235228     -2.59002823425356
  H   4.50641015451972      3.45123829710762     -0.68365300594862
  H   3.73795276517945      0.21010027741254     -3.30832800991513
  H   5.97177780980521      1.45361895181145     -4.28724801189824
  H   -2.08152676867573     -1.04052743019249      1.33786756720313
  H   -1.62565879391093      0.87732875802855      2.89223873553573
  H   1.53196437021181      4.33336500141330      3.34508149941067
  H   1.18890732109175      5.85265097418167      5.29999633438029
  H   -0.74529609582761      5.48395853228435      6.83556827260084
  H   -2.32231103626657      3.59850491712391      6.40418068129355
  H   -1.98103082883814      2.10637033571150      4.48002925328280
  H   -0.21564101797415     -2.89851884259121     -2.55795520093553
  H   -1.39681721311036     -4.90738525079766     -3.46239071817963
  H   -3.41636999001086     -5.79307633909739     -2.29103735592695
  H   -4.23953146778215     -4.66295434079518     -0.22382153575082
  H   -3.07496883611744     -2.68746226835185      0.66204143100476
