52
Coordinates from ORCA-job ./opt_b3lyp_cdz
  C   3.73259959328661      7.75682974842623     -0.18368451501920
  C   3.14265236794547      6.36956442250372     -0.12295432251241
  C   1.77510069162705      6.17054069260451      0.12550572332450
  C   1.23330125179830      4.88977385185370      0.21115976503028
  C   2.04442176159288      3.75098503655593      0.04777243488567
  C   3.41519834234588      3.94775050769775     -0.20557847444828
  C   3.94975809343351      5.23151487193735     -0.28950497005658
  C   1.43532846499147      2.40073202981572      0.14257509110577
  C   2.17694663174659      1.22979761955034     -0.01124493393371
  C   1.53663540095479     -0.01770611873604      0.09121442587043
  C   2.16486313972854     -1.26834403816748     -0.04296563659775
  C   1.41192857781193     -2.43557782277820      0.08111478407750
  N   0.08223410226671     -2.40282219574040      0.32975007219654
  C   -0.53895133296003     -1.23792670197915      0.46180467363463
  N   -1.85457956858619     -1.21134172928254      0.70796585862366
  C   -2.41971052960742     -0.00795911885984      0.82977865546180
  N   -1.84302478756694      1.19261846928125      0.73809698293793
  C   -0.52714332895537      1.21271190554367      0.49269291861361
  N   0.10530573864279      2.37452530315894      0.39021624188998
  N   0.16691623762843     -0.01433245412277      0.34666306367658
  N   -3.78795173630885     -0.00459405471365      1.08582165485913
  C   -4.57733877014524      1.13431509832758      1.24885042259426
  C   -5.86217151218657      0.72074621190932      1.48378184280667
  C   -5.86909419927204     -0.71972132241070      1.46570921658487
  C   -4.58825860673510     -1.13959354143088      1.22036313059198
  C   2.00799460194033     -3.78878815762691     -0.04792576701929
  C   1.18702691119560     -4.92352130209047      0.09211003487917
  C   1.71668207054590     -6.20694487175255     -0.02545095654513
  C   3.08126636394596     -6.41258199790394     -0.28407626942413
  C   3.65887433624975     -7.80295996383632     -0.38000303093947
  C   3.89823700362282     -5.27836678024521     -0.42761739704430
  C   3.37594870850162     -3.99216223958255     -0.31160306760939
  H   4.10077576094398      8.07181900928751      0.80938287195518
  H   4.58702216610775      7.80396174713508     -0.87692602706444
  H   2.98637474535665      8.49963321963144     -0.50514669426169
  H   1.12062874567528      7.03741094828178      0.25259638536126
  H   0.17073443368324      4.74208912983942      0.40285517231835
  H   4.08308853310848      3.09620439082013     -0.34471938187382
  H   5.01750216029239      5.35404659358551     -0.49096910596057
  H   3.24573831424638      1.23389317772575     -0.21044478742033
  H   3.23369735932134     -1.27773116627633     -0.24173968041294
  H   -4.12366958824430      2.11601641255890      1.17702963290638
  H   -6.71580567640500      1.37381309686639      1.65230012949354
  H   -6.72898317302004     -1.36857690254409      1.61790161731651
  H   -4.14401724726499     -2.12349753455601      1.12394144248525
  H   0.12659405016429     -4.77066410775829      0.29142175665803
  H   1.05476767053470     -7.07052085363883      0.08419321935637
  H   4.05028403060415     -8.13509452720898      0.59847520023340
  H   2.89938234319487     -8.53557630970343     -0.69340111892065
  H   4.49516263917488     -7.84554052643097     -1.09540515341545
  H   4.96396479096669     -5.40594270754903     -0.63655232680608
  H   4.05100192208001     -3.14372444796971     -0.43420080444359
