46
Coordinates from ORCA-job ./opt_b3lyp_cdz
  F   3.61632017304923      7.55761557835047     -0.22675397536777
  C   3.09576821501018      6.31768860212403     -0.14436431238433
  C   1.73503499379700      6.16676008609494      0.11150080380156
  C   1.20613054305136      4.88071884791297      0.19526742759214
  C   2.02318456021186      3.74524474779316      0.02563531042038
  C   3.39431378248930      3.93908054060124     -0.23165593362755
  C   3.93638180119090      5.21986055738722     -0.31778093055253
  C   1.41515042924843      2.39420809828552      0.12365986835204
  C   2.15475924954932      1.22309199153915     -0.03812871960666
  C   1.51308424956094     -0.02343348835368      0.06867210520636
  C   2.13881254933962     -1.27473646683748     -0.07162127470853
  C   1.38429116340728     -2.44023356022178      0.05886867525197
  N   0.05757501774982     -2.40648379568286      0.31766451271007
  C   -0.56200634914375     -1.24047825206603      0.45505359273387
  N   -1.87453392121630     -1.21264825661427      0.71079013146439
  C   -2.43842412309996     -0.00852174406345      0.83805226471856
  N   -1.85922101517657      1.19129255325435      0.74287264146022
  C   -0.54638602973672      1.20921008431283      0.48781533857565
  N   0.08805617745186      2.37047379011386      0.38163668506623
  N   0.14573608429478     -0.01827728580108      0.33523958914980
  N   -3.80312706044539     -0.00337066459088      1.10332729533990
  C   -4.59031604507244      1.13708740027912      1.27284260952141
  C   -5.87351166832000      0.72488686019863      1.51623340027584
  C   -5.88268401659627     -0.71597796770662      1.49699102610990
  C   -4.60478918877642     -1.13783389963281      1.24250634635650
  C   1.97508511834193     -3.79580977234603     -0.07526835416477
  C   1.14395495500312     -4.92493942849664      0.06595448788363
  C   1.65650281353022     -6.21493235527576     -0.05189604630715
  C   3.01494218156440     -6.37627095333358     -0.31353788287354
  F   3.51975224209136     -7.62008225127095     -0.42881869043503
  C   3.86912801963914     -5.28497086539014     -0.45967265173519
  C   3.34336669293862     -4.00013660408488     -0.33953104291838
  H   1.11019339539025      7.05186891459701      0.24131213072697
  H   0.14616241990524      4.72638788081853      0.39448399242612
  H   4.06146666071469      3.08737146159124     -0.36847234016182
  H   4.99704425866025      5.38040311075278     -0.51634014885031
  H   3.22169174029205      1.22464037949371     -0.24689902793843
  H   3.20571858646224     -1.28426903098651     -0.28029113263423
  H   -4.13641805194313      2.11848497158520      1.19886178221935
  H   -6.72508428394699      1.37887094015098      1.69125216241682
  H   -6.74254064607029     -1.36350835688496      1.65463789140679
  H   -4.16338578496133     -2.12260324021709      1.14234410753015
  H   0.08623368622067     -4.76250506697313      0.27059397642316
  H   1.02068512776496     -7.09517798840272      0.05580640735201
  H   4.92744355598156     -5.45363004606396     -0.66394864433667
  H   4.02105774060466     -3.15364605593895     -0.45531545388916
