58
Coordinates from ORCA-job ./opt_b3lyp_cdz
  F   1.76650381057902      7.42264353209469     -4.32926096393927
  C   1.41907996802600      6.20054923698243     -3.88072884309576
  C   0.24006889004021      6.05228349536453     -3.15440241658524
  C   -0.11097334215792      4.78482359873151     -2.69499165146115
  C   0.70308941060038      3.66458820318793     -2.95500281687915
  C   1.88811713770666      3.85567084983514     -3.69191338561739
  C   2.25173648864655      5.11793016050410     -4.15685548522910
  C   0.28871266019264      2.33154614686884     -2.44764388026437
  C   1.02686722338570      1.17354086477250     -2.69447948735405
  C   0.57830244817644     -0.05676419197085     -2.18394486095806
  C   1.22077788289776     -1.29518856409822     -2.35446600884431
  C   0.66349586269194     -2.44327666673400     -1.79046458952513
  N   -0.48604450764286     -2.40533378715933     -1.08004569667423
  C   -1.11727899622472     -1.24862523255251     -0.90231910532361
  N   -2.25198197197384     -1.21674398804989     -0.20047712133652
  C   -2.85668933533191     -0.03184382701110     -0.04452532786100
  N   -2.43770355636588      1.14570619089218     -0.52602765443630
  C   -1.30658521809226      1.16133188997211     -1.23415663142304
  N   -0.85621138654272      2.31033354275612     -1.72917223800879
  N   -0.60353456350153     -0.04797711636208     -1.44659670625029
  N   -4.03298155311970     -0.02341096394956      0.68810803975607
  C   -4.83642611865337      1.12420901577397      0.97786954275226
  C   -4.67650000504027      2.47245618821814      0.62958621466739
  C   -5.64588136006965      3.38022784278492      1.06763750428280
  C   -6.75045331484808      2.97412482998779      1.83210619081220
  C   -6.90594119071825      1.63214615486456      2.17642906230238
  C   -5.94729460391063      0.70649397921341      1.74847993750037
  C   -5.83605705640222     -0.72665639133840      1.94351971955748
  C   -6.65228795043452     -1.63951243710733      2.62133994483539
  C   -6.28841027911379     -2.98516997239664      2.64256658006073
  C   -5.11941164820817     -3.40753205530223      1.99104501218931
  C   -4.28959630689940     -2.51274137795886      1.30813751364659
  C   -4.65896253223782     -1.16075432385320      1.28904860941555
  C   1.28822632823952     -3.78370904956893     -1.92867659420155
  C   0.66041395350826     -4.90065301034703     -1.34253392714813
  C   1.21262892760575     -6.17522442039726     -1.44863953773929
  C   2.40624330952258     -6.33368530776836     -2.14848051435819
  F   2.94798279285500     -7.56263942878427     -2.25612891981151
  C   3.05779941633897     -5.25421327793331     -2.74164333434760
  C   2.49420036342343     -3.98492489380748     -2.62792109856391
  H   -0.38481080861150      6.92514423721264     -2.95851605762304
  H   -1.02607174777153      4.63471165250474     -2.12341261726845
  H   2.54869289603255      3.01634550013224     -3.91161010713718
  H   3.16802567841934      5.27553592912789     -4.72761940506480
  H   1.94645054796278      1.17427035067995     -3.27429229410698
  H   2.14289657284077     -1.31012267973946     -2.93004740568796
  H   -3.82622920187118      2.79548362883600      0.03901041861675
  H   -5.53231825088321      4.43415574678107      0.80261542759072
  H   -7.48858246311395      3.71077705845092      2.15730426419792
  H   -7.76127756941694      1.30344476205469      2.77106598353610
  H   -7.55966436639091     -1.29799913751440      3.12457436037058
  H   -6.91317087955084     -3.71201786829200      3.16659592913745
  H   -4.84218005809584     -4.46420547242016      2.01311008800780
  H   -3.38790534877765     -2.84820265385611      0.80760173384172
  H   -0.27186388814501     -4.74212172801347     -0.80182974669044
  H   0.73316096383782     -7.04577497930569     -0.99810726409745
  H   3.99168570711996     -5.41952451073474     -3.28083310745736
  H   3.01366213947195     -3.14762527425887     -3.09503527470868
