18
Coordinates from ORCA-job ./opt_b3lyp_cdz
  C   1.40552685564901     -6.06823659458705     -7.49369981302322
  C   0.14720738328385     -6.59171354655096     -7.64080038367238
  C   -0.96033551015642     -5.96283962002107     -6.99002666063385
  N   -2.19426511375980     -6.42941034086573     -7.10085980615730
  N   -3.21264608485976     -5.78689886244657     -6.45647446214901
  C   -2.96587490806186     -4.72689029130035     -5.74200625303164
  C   -1.65412042994764     -4.15143988908987     -5.56718725521674
  C   -1.33912121335021     -3.03065540693565     -4.82138824421256
  N   -0.07038584875070     -2.55327156567741     -4.70896080282776
  C   0.88491800801974     -3.18947452425102     -5.33756048480666
  C   0.69065480272806     -4.36882615669307     -6.14722990455672
  N   1.70030855438159     -4.96271388815623     -6.75532397428341
  N   -0.63237280259739     -4.82264092289310     -6.23282897127427
  H   2.25973569567354     -6.54154847188034     -7.98728054290597
  H   -0.06294755726299     -7.47788053803241     -8.23735173681296
  H   -3.81510669100253     -4.24858654883821     -5.24582446843049
  H   -2.12998638583634     -2.49424530898171     -4.29407505884169
  H   1.91278124584991     -2.82418752279921     -5.26184117716336
