64
Coordinates from ORCA-job ./opt_b3lyp_cdz
  C   5.82278783870895      5.90364972406099     -0.06735702641375
  C   5.58399683253590      4.92008981966340     -1.19032754913530
  C   6.37581108135290      4.97774724559688     -2.35547456172620
  C   6.17857897565455      4.08424967950436     -3.40420819438238
  C   5.17543284315986      3.11413680922864     -3.29405890305640
  C   4.37813637835788      3.04986254100820     -2.12937835934498
  C   4.57753730887377      3.95071193406060     -1.07388237120330
  N   3.44312223408052      1.97653972429643     -2.28439962714942
  C   3.67248162350829      1.37677085974866     -3.56420724312904
  C   3.03882909175698      0.30170912602601     -4.20296676966378
  C   3.47450870629057     -0.08128768930296     -5.47957114244956
  C   2.80927102223319     -1.23670502421503     -6.19230979735786
  C   4.53398396443442      0.61163339492198     -6.10017600795696
  C   5.16385944493304      1.67916721446964     -5.46714033654086
  C   4.73345907117466      2.06651725372258     -4.19265143671283
  C   2.48653280554016      1.58782937085569     -1.36068393586694
  N   1.70526972103383      0.55345124752969     -1.69905473527528
  C   0.77582027055795      0.16245266903813     -0.82499550935338
  N   -0.01967739319145     -0.86078496936007     -1.12398328757572
  C   -0.96053733263328     -1.26234416443979     -0.24070853816636
  C   -1.12757174223241     -0.63753268566097      0.99538360877318
  C   -0.30644067616679      0.45018518776677      1.33936850674359
  C   -0.36706151960175      1.17159147715876      2.54424946347144
  C   0.50985623796936      2.23607033450451      2.75389681716726
  N   1.43391881579214      2.59416169651379      1.83496155187441
  C   1.51889232364464      1.92741841074772      0.68707645758977
  N   2.43375805577037      2.28322446146625     -0.21682789700197
  N   0.65082966130808      0.84536821184536      0.40796159740587
  C   0.49593987332601      3.04275949420564      4.00343405488507
  C   1.51390287498922      3.99017971326092      4.22357121579282
  C   1.53284122611521      4.75665243886545      5.38887300349727
  C   0.53306428574884      4.59736001585028      6.35395905680511
  C   -0.48849921698784      3.66486642122700      6.14355275588463
  C   -0.50710631294669      2.89464180991734      4.98056388762172
  C   -1.79776579699261     -2.41477089719768     -0.66932597417606
  C   -1.49035133636232     -3.08070525870760     -1.87121971425803
  C   -2.25271751320610     -4.16826948930846     -2.29756882895073
  C   -3.33955377839811     -4.60950104955340     -1.53576369021166
  C   -3.65926559559193     -3.95256424514143     -0.34259912641711
  C   -2.89632359548364     -2.86651688506151      0.08692898702511
  H   6.84581775576107      5.80978997014866      0.33659188447096
  H   5.70972238226839      6.94485060580240     -0.41558847088821
  H   5.11740851621942      5.74678911804327      0.76196045885812
  H   7.15718183515840      5.73878295370050     -2.43395914301686
  H   6.79700855119176      4.13744581466810     -4.30323171375957
  H   3.96070144699546      3.89629228152608     -0.18275817653796
  H   2.22437558852471     -0.22336087718145     -3.71461360927348
  H   2.00520191165452     -1.67565238191935     -5.58346974170217
  H   2.36956889744219     -0.91560665526178     -7.15248303380157
  H   3.53430783209411     -2.03637151018946     -6.42298360368782
  H   4.86437487149536      0.30302350942173     -7.09591895980586
  H   5.98389423181778      2.20974282066160     -5.95665804762103
  H   -1.86862983916028     -0.96135119005780      1.72183524267637
  H   -1.09969548008293      0.86047574732254      3.28473239205274
  H   2.28332777474156      4.10598276650956      3.46086978086739
  H   2.33290306478406      5.48429809222782      5.54448891471275
  H   0.54674728693285      5.19916124779614      7.26589013815692
  H   -1.27780525004494      3.53880084280442      6.88823275655758
  H   -1.32240513519140      2.18432875597435      4.83559904660118
  H   -0.64290189715271     -2.72365731890367     -2.45555503436813
  H   -1.99731103215321     -4.67456866161517     -3.23149476166655
  H   -3.93771342938319     -5.46049519710669     -1.87040353178852
  H   -4.50983707964764     -4.28630159831392      0.25622691226919
  H   -3.17425356333544     -2.36623506519035      1.01567989960000
