60
Coordinates from ORCA-job ./opt_b3lyp_cdz
  O   2.49960569002131      7.40244169366984      4.77082099484169
  C   1.99959367244288      6.25923097247725      4.20947806642870
  C   2.80546560107683      5.60813544674494      3.25725271202634
  C   2.38912861638837      4.43672034074311      2.62591086601475
  C   1.13371598898159      3.90787110127735      2.95998470225728
  N   0.44431129691112      2.74370411677956      2.49530910311386
  C   -0.80999481107627      2.68206515625298      3.17890516175451
  C   -1.86068648516248      1.76064915303058      3.10278865680640
  C   -2.98318578309688      1.96929045001219      3.90851296612885
  C   -3.07472557950638      3.06948993231391      4.77973025273497
  O   -4.16721774344118      3.28681052690250      5.57482643715522
  C   -2.02689038697693      3.98966367433487      4.85630273791133
  C   -0.90010082333047      3.79020821927007      4.05462250251177
  C   0.32272716330686      4.55855602918944      3.91562555931667
  C   0.74967958111870      5.73447863236931      4.54374891267154
  C   0.90546082764084      1.84259410206735      1.55623042870807
  N   0.10387822362852      0.80590885834378      1.26958968436575
  C   0.52767498071150     -0.07437283021594      0.36160838172285
  N   -0.24200801034514     -1.11158014502819      0.04096767137567
  C   0.18243907757059     -2.00444613463663     -0.88020730152267
  C   1.42025179887194     -1.88344413785960     -1.51208217861825
  C   2.25626241245389     -0.79800229030067     -1.19739730584379
  C   3.52124061993650     -0.55201363950121     -1.75793556556317
  C   4.24897023902866      0.56671163415116     -1.35034201394267
  N   3.77130729055382      1.43581083095614     -0.43296371517280
  C   2.57602839162017      1.23106882774511      0.11476182935735
  N   2.10980821682623      2.09081679455804      1.02141959761111
  N   1.79104334310376      0.11064740308211     -0.24965615415535
  C   5.59329771792100      0.88471562523117     -1.90211735055850
  C   6.20462525751056      2.10766984592600     -1.56590313282350
  C   7.46157771110782      2.43801204386408     -2.07263777750190
  C   8.13545191350571      1.55216147579161     -2.91970782925660
  C   7.54197954765631      0.33051781122224     -3.25558483506541
  C   6.28345056104550     -0.00016722772819     -2.75265819010151
  C   -0.75039328191183     -3.12694821985426     -1.16871838012194
  C   -1.90650126673989     -3.28273180871321     -0.38042182371691
  C   -2.79669768508282     -4.32930567151064     -0.62145138823501
  C   -2.55411248141909     -5.23705452406002     -1.65754865889742
  C   -1.41283012748538     -5.08875949779278     -2.45302268108679
  C   -0.51944111580119     -4.04488276204687     -2.21113536927559
  H   1.85123496591657      7.74618059948418      5.40291339805105
  H   3.77716850152372      6.04438827816244      3.01883344113279
  H   3.01954379497279      3.94434046270514      1.89297446255283
  H   -1.80300987350505      0.90729417121049      2.43536747347198
  H   -3.81077214022011      1.25466039190397      3.85672715462548
  H   -4.80805667591777      2.57777446337464      5.41866615901832
  H   -2.10763829655111      4.84028417221482      5.53511926750146
  H   0.11336629886159      6.23041901688278      5.28266940726835
  H   1.78145020076660     -2.60645532410586     -2.23915499966968
  H   3.88612713524049     -1.24757501645161     -2.50954457861838
  H   5.66934091005322      2.78561040575318     -0.90182997104245
  H   7.91890513062488      3.39314770975816     -1.80366583533166
  H   9.12086104564066      1.81011020302853     -3.31522478253686
  H   8.06371137595136     -0.37075937613231     -3.91094455987247
  H   5.84878795529445     -0.96425715770337     -3.02065807197601
  H   -2.08408527812926     -2.56534859577635      0.42019831724836
  H   -3.68680306674657     -4.43685147212060      0.00307619811560
  H   -3.25240848093673     -6.05575291196894     -1.84760449515355
  H   -1.21860919799243     -5.78849760976822     -3.26920324558770
  H   0.35604553559277     -3.94464421949093     -2.85431031256407
