68
Coordinates from ORCA-job ./opt_b3lyp_cdz
  C   4.15780448614253     -8.30798540225287     -1.56268655391780
  C   4.45290946555600     -7.05831857071757     -2.11663968967951
  C   3.72472959019441     -5.93046493999656     -1.73404732916142
  C   2.69269427803346     -6.02939671659510     -0.78204574132666
  C   2.40893786080864     -7.29216259269112     -0.22877322187412
  C   3.13169417944165     -8.42079437738649     -0.61930459428753
  C   1.92048966168763     -4.82834110814405     -0.37059085694105
  C   1.62309396327871     -3.82217111931298     -1.30117480725018
  C   0.89643969041695     -2.68363633168041     -0.93247000476063
  N   0.59559892736720     -1.71550009297530     -1.81607708142903
  C   -0.10702988967464     -0.67462310309389     -1.36485858288371
  N   -0.54359764592547     -0.49597849148071     -0.10350021047335
  C   -0.25972087000917     -1.43749401923406      0.79090346007485
  N   -0.66277836135026     -1.31064837562317      2.05121327215409
  C   -0.34991467891723     -2.29633233758453      2.91382358011549
  N   0.33125933537548     -3.40762095678853      2.62790109716452
  C   0.75160884443538     -3.56195905636807      1.35980336171779
  C   1.47982403357658     -4.68651148944093      0.95324271095710
  N   0.47430070698391     -2.57893462627860      0.39994417217003
  N   -0.78261418998297     -2.13237161190446      4.22176167186015
  C   -0.57075641954644     -3.04837655985388      5.29875232596199
  C   0.09116362370239     -4.28283365400538      5.34272411795339
  C   0.13509184962510     -4.96179020684237      6.56433182671379
  C   -0.45939645415827     -4.43968788592582      7.72317667790498
  C   -1.11689162441164     -3.21125197370652      7.67696761526346
  C   -1.17215184228316     -2.51564589437940      6.46369964848853
  C   -1.77020018068321     -1.24323891680000      6.10872357663116
  C   -2.48183861979014     -0.30718007327350      6.86810498201009
  C   -2.94629710616355      0.85217539594272      6.24926951336441
  C   -2.69795294410590      1.06715951532140      4.88490939909821
  C   -1.98955978253521      0.14521724885024      4.10829086804162
  C   -1.52424902520544     -1.02001378807689      4.73318278660587
  N   -0.42133587527918      0.32486868489163     -2.27427313576806
  C   -1.16150865384943      1.51804439049766     -1.99610934819199
  C   -1.74504240066378      1.98758618350555     -0.81128655275872
  C   -2.41672448153719      3.21319503596323     -0.85251118914982
  C   -2.51545752968520      3.96581641444952     -2.03284841707840
  C   -1.93456486738593      3.49616838314671     -3.20962088203137
  C   -1.25745244152261      2.27123146140619     -3.19022301358354
  C   -0.56648362716369      1.53704448377259     -4.23245282985393
  C   -0.35733445581673      1.81977829777746     -5.58715805123430
  C   0.35861052496886      0.91121400887255     -6.36524400260780
  C   0.85765756553384     -0.26662223063607     -5.78852031826512
  C   0.65974982099353     -0.56765516945402     -4.43742248968942
  C   -0.05999510019377      0.34740494558220     -3.65731977714335
  H   4.72555673379738     -9.19100344603299     -1.86517564681809
  H   5.25853353108447     -6.95914487866543     -2.84787759783077
  H   3.97773669963029     -4.95608520985976     -2.15701726379041
  H   1.59569023747930     -7.39548097851003      0.49251972809639
  H   2.88835982813822     -9.39449954675392     -0.18771909586862
  H   1.91199490571560     -3.90065619802222     -2.34713466415967
  H   1.71396258115983     -5.42144790676149      1.72052788681938
  H   0.55380549829783     -4.69395349815077      4.45319636254648
  H   0.64902783069445     -5.92501737350431      6.60943743932454
  H   -0.40617119009067     -4.99651377570386      8.66138523661097
  H   -1.58349954598558     -2.79350252781517      8.57191477228295
  H   -2.66751770521718     -0.48712642038202      7.92940407197498
  H   -3.50348559603145      1.59419068863213      6.82550891098916
  H   -3.06510113487272      1.97883451417328      4.40754797494468
  H   -1.80330272084486      0.32128075232826      3.05503254468830
  H   -1.67490306575240      1.41431661326606      0.10603294384538
  H   -2.87520395176453      3.58830133857800      0.06559392986727
  H   -3.04798942467982      4.91952534173085     -2.02832524220024
  H   -2.00382410559608      4.07132123065927     -4.13569203756762
  H   -0.75137517024215      2.74025233127319     -6.02381773617746
  H   0.53140117059733      1.11526578505999     -7.42431288005628
  H   1.41727715156290     -0.97371013750669     -6.40562656105111
  H   1.04872810263309     -1.48017947551096     -4.00115105938694
