68
Coordinates from ORCA-job ./opt_b3lyp_cdz
  F   4.84461810680129     -9.37661055205962     -1.92741682097537
  C   4.14452160401205     -8.28710080549309     -1.55458047369429
  C   4.44425404079826     -7.05712311500293     -2.13462976863579
  C   3.71251233853043     -5.93489502617213     -1.74705424449655
  C   2.69229597886665     -6.02761995615713     -0.78103601275911
  C   2.42273183342237     -7.28836727497572     -0.21490353199028
  C   3.14019901217058     -8.42083542775097     -0.59929219219599
  C   1.92072778174565     -4.82731579865988     -0.37007822837061
  C   1.62367243197678     -3.82082346713425     -1.30057580307409
  C   0.89746592770792     -2.68180931203853     -0.93166444511539
  N   0.59822571334965     -1.71344178605843     -1.81474722778530
  C   -0.10402094219786     -0.67167529913935     -1.36361681280349
  N   -0.54204592562108     -0.49394432326671     -0.10268793549490
  C   -0.26051315458404     -1.43647217618285      0.79127573373936
  N   -0.66597384263571     -1.31110467094708      2.05089046727827
  C   -0.35453673146966     -2.29735697396541      2.91330781987773
  N   0.32801087292554     -3.40832857627720      2.62728436259067
  C   0.74998945351538     -3.56139824165288      1.36013955506557
  C   1.47940333607316     -4.68546638339757      0.95368532214664
  N   0.47388955073065     -2.57782244515942      0.40044786272277
  N   -0.78966415178979     -2.13514775542213      4.22014665700545
  C   -0.56617962406367     -3.04498463550853      5.30028218660108
  C   0.11010143533079     -4.27140539716189      5.34816252735588
  C   0.16426582955985     -4.94484722546326      6.57249544104772
  C   -0.43435182191409     -4.42491576423765      7.73015241848047
  C   -1.10622343560768     -3.20439421869940      7.68006785946572
  C   -1.17164837872809     -2.51447805235834      6.46411940057597
  C   -1.78499486925043     -1.25043604785020      6.10518561408567
  C   -2.50755159898433     -0.32066312895434      6.86188109262947
  C   -2.98787977099641      0.83009998030279      6.23906819941221
  C   -2.74463425097010      1.04273217156476      4.87344940151981
  C   -2.02516857241443      0.12697245424454      4.09956269719387
  C   -1.54347553271112     -1.02927505642358      4.72855021579251
  N   -0.41575545239146      0.32853865056522     -2.27237528780779
  C   -1.14638046147802      1.52732603160123     -1.99176407031052
  C   -1.71860095531289      2.00339228401952     -0.80412676454875
  C   -2.38122581342188      3.23407613090517     -0.84319565328119
  C   -2.48186870445027      3.98517820453804     -2.02429744707302
  C   -1.91185717025819      3.50916099797928     -3.20388925202498
  C   -1.24379523209238      2.27928006926914     -3.18650948183298
  C   -0.56386388055428      1.53876282763210     -4.23162012286844
  C   -0.36119804721358      1.81783527247729     -5.58801416126521
  C   0.34367983256193      0.90308854328582     -6.36902172726561
  C   0.83815732782405     -0.27724822874047     -5.79355357868164
  C   0.64662536878416     -0.57453143494365     -4.44062702315836
  C   -0.06181994918128      0.34671980338916     -3.65760495395139
  H   5.24526729044295     -6.99062799223005     -2.87250412634281
  H   3.95889799401861     -4.96524454643377     -2.18347714952139
  H   1.62023539856787     -7.39309351121720      0.51748875738309
  H   2.92800070695768     -9.40346092006420     -0.17511935746441
  H   1.91056078501354     -3.89852976385406     -2.34715228784539
  H   1.71400403006097     -5.41867746102105      1.72248000784002
  H   0.57560146072737     -4.68103635950061      4.45946412643535
  H   0.68944228284113     -5.90181464338539      6.62067131397424
  H   -0.37307212412940     -4.97722745448674      8.67051823470281
  H   -1.57604096526233     -2.78836725007963      8.57411838496620
  H   -2.68968528315597     -0.49892213009730      7.92406173319372
  H   -3.55382330999071      1.56712746922875      6.81319456700685
  H   -3.12464012253367      1.94742992874832      4.39294598709690
  H   -1.84255103432351      0.30138523056783      3.04541484165032
  H   -1.64710167225763      1.43125195422031      0.11377045071539
  H   -2.83085248274664      3.61436016477396      0.07712336869938
  H   -3.00722756786714      4.94286252236579     -2.01820919289558
  H   -1.98238783682307      4.08333683930460     -4.13045193433737
  H   -0.75179024104599      2.74018140074156     -6.02377666886721
  H   0.51128675311244      1.10423976729245     -7.42946321844953
  H   1.38898996514321     -0.98915589520023     -6.41297752553072
  H   1.03228646685441     -1.48887221418943     -4.00526212554175
