74
Coordinates from ORCA-job ./opt_b3lyp_cdz
  F   7.47105110840552     -7.39970001567603     -5.03793240708802
  C   6.22370137495653     -7.18543972056656     -4.56787162948306
  F   6.24573939396540     -7.46461637607004     -3.24465303776301
  F   5.96348352588828     -5.86432085013197     -4.68540208011688
  C   5.19778910879150     -8.02319592766730     -5.29232518001904
  C   5.57102328252558     -9.24279524957719     -5.86136181516195
  C   4.59591101907042    -10.03000129862873     -6.47961545928800
  C   3.26478340311769     -9.61020116451578     -6.52145605693666
  C   2.88431070197359     -8.38064533643221     -5.95780737291128
  C   3.87057861752225     -7.59007799346668     -5.34583378517044
  C   1.46795984268727     -7.92697442139001     -6.00818613514148
  C   0.42676269381648     -8.85512189976100     -5.88102104740894
  C   -0.91410352540219     -8.44651336823383     -5.92512472609130
  N   -1.92480329649309     -9.31911983684377     -5.79536895552170
  C   -3.16734423810275     -8.82825213682902     -5.84777845715026
  N   -3.50217808732544     -7.53604609832815     -6.02221094877844
  C   -2.52024568587456     -6.65009362705558     -6.15209153670296
  N   -2.79507358928837     -5.36191396425300     -6.32801301821690
  C   -1.76225073141511     -4.50712232049961     -6.45027002636076
  N   -0.46516029676792     -4.82907179916372     -6.41000779967436
  C   -0.15919998841835     -6.12338864690867     -6.23391138159694
  C   1.16940955428045     -6.56969840003792     -6.18288293559244
  N   -1.17489687989011     -7.08064914379004     -6.10261717191851
  N   -2.08152996571775     -3.17233570227577     -6.63340288534390
  C   -1.15060433289972     -2.09504441578079     -6.77683868265144
  C   0.25039210820941     -2.08040111452401     -6.77466035068463
  C   0.89506891965532     -0.85021708717047     -6.93834760784705
  C   0.17802419239042      0.34462743023265     -7.10136188937429
  C   -1.21606628802851      0.32720159104165     -7.10321621731648
  C   -1.88003175915318     -0.89391565555732     -6.94077990265195
  C   -3.29154092105068     -1.22497420303222     -6.90021866681263
  C   -4.43582870918052     -0.42699327504757     -7.01203277480745
  C   -5.69021252818897     -1.03018223349073     -6.93521176784790
  C   -5.79214482761115     -2.41709847626086     -6.74864968944333
  C   -4.66166341342890     -3.23227250457342     -6.63433498397675
  C   -3.40216508256793     -2.62271353442366     -6.71163351600475
  N   -4.21263003064829     -9.72605559448972     -5.71179121986014
  C   -5.60899405267268     -9.40700177209028     -5.73694340707430
  C   -6.27344322337016     -8.18321310520018     -5.89402003254400
  C   -7.67170083491871     -8.18971763466679     -5.87468920489797
  C   -8.40525704367609     -9.37365439846258     -5.70453523348873
  C   -7.74122457255284    -10.58933904635524     -5.54830731263785
  C   -6.34188831777552    -10.60477890289567     -5.56458963686827
  C   -5.39006522773558    -11.69074645199813     -5.42910537197568
  C   -5.56930599154445    -13.06562816333425     -5.23955375085900
  C   -4.44699895105720    -13.88704338845262     -5.14202727909365
  C   -3.16123359473827    -13.33319289734137     -5.23382632426602
  C   -2.96096963972330    -11.96211965915224     -5.42304190590538
  C   -4.09053932998940    -11.13896740531023     -5.52082503909662
  C   4.99482806300502    -11.32151261258304     -7.15205644222235
  F   3.98349300142038    -12.21764306501608     -7.15817519200730
  F   5.34949997096281    -11.11922965454557     -8.44148008165427
  F   6.05008239295825    -11.90026496274440     -6.53945150782118
  H   6.60775354395173     -9.57561134744110     -5.82370740592683
  H   2.52219956732984    -10.23731789904297     -7.01530929716306
  H   3.60062527704916     -6.63787479812459     -4.88831201962262
  H   0.60973292310283     -9.91377857943625     -5.70891342255160
  H   1.94335728221407     -5.81748507419712     -6.32088396788919
  H   0.81395261632285     -2.99745398190541     -6.65000222327124
  H   1.98741905960994     -0.82765727379458     -6.93822800021032
  H   0.71318054038558      1.28847056683054     -7.22684150596459
  H   -1.78602236595180      1.25043846502628     -7.22906268967255
  H   -4.34222617907248      0.65151458242062     -7.15737923697352
  H   -6.59464461385664     -0.42372813462990     -7.02033790532960
  H   -6.77918958728532     -2.88179751085116     -6.68979112924734
  H   -4.75241408955622     -4.30273842714028     -6.49030189912363
  H   -5.71706581354322     -7.26239994925121     -6.02604684349249
  H   -8.20007139706465     -7.24118381484562     -5.99621993091318
  H   -9.49700264531472     -9.34176180257564     -5.69449156965302
  H   -8.30002229305230    -11.51831726002593     -5.41476551614255
  H   -6.57567843909826    -13.48436491678290     -5.16953047814409
  H   -4.56775990027061    -14.96244705328661     -4.99402400432900
  H   -2.28709574980872    -13.98404241385781     -5.15626029761341
  H   -1.96346505448796    -11.54455588575675     -5.49218981565074
