32
Coordinates from ORCA-job ./opt_b3lyp_cdz
  S   0.86365625691368      5.12546952410193      0.48463116578158
  C   2.23379509917035      6.16998106753798      0.63574729605512
  C   3.41709225229309      5.47413700160965      0.74460147378750
  C   3.22114946787426      4.06815957488269      0.70610694897017
  C   1.89197973949172      3.70725509413313      0.56847732052521
  C   1.28283595332402      2.38455911905103      0.48971989884199
  C   2.03956977060800      1.21386115848503      0.55009686642319
  C   1.38762547856750     -0.02729499476923      0.46783944604747
  C   2.02007434747379     -1.28283677714997      0.51440787330109
  C   1.24961612155847     -2.44016558503294      0.42119659707061
  N   -0.09792117066505     -2.40884447915342      0.28596335476466
  C   -0.71935821339486     -1.23885823505339      0.23941974143239
  N   -2.05829677500513     -1.20180599513540      0.10531352033262
  C   -2.61891816871968      0.00389161769833      0.06547923774708
  N   -2.04150696144592      1.20195406177743      0.13981833502958
  C   -0.70448879199081      1.21495985659026      0.27433585038727
  N   -0.06325765731301      2.37507718210149      0.35442058096066
  N   -0.00239396367841     -0.01654180749575      0.32822768663388
  C   1.83195527368105     -3.78062864026454      0.46178655614228
  C   1.14134701759511     -4.97433787883244      0.37519852463996
  C   1.98361221204008     -6.11731839122190      0.44511656882078
  C   3.31131557919556     -5.79009690309289      0.58458705855242
  S   3.55523273040181     -4.07462024400035      0.63302677927420
  H   2.09533532739427      7.25013321249403      0.63647276801843
  H   4.39183151855503      5.95156186481975      0.84845330768833
  H   4.03469820576240      3.34583061492008      0.77760139968541
  H   3.12225120254723      1.22444015873694      0.65911374045908
  H   3.10356163844978     -1.31187155678497      0.62295984501307
  H   -3.71028241622901      0.01327355868450     -0.04409356553433
  H   0.05823847439285     -4.99297663992244      0.26488368757111
  H   1.62322997021155     -7.14512067709869      0.39434424206042
  H   4.16701048093664     -6.45854586262031      0.66239589351558
