46
Coordinates from ORCA-job ./opt_b3lyp_cdz
  N   0.76069082548832      7.20257226458821     -0.13834825095928
  C   -0.47004557617084      6.59350365408938      0.00661958663848
  C   -0.30734148412341      5.23191313082132      0.10395755057884
  C   1.10383994385185      4.96714343766611      0.01528111785252
  C   1.91674547263046      3.79445627381230      0.03047469392961
  C   3.30732792076794      3.96781766489543     -0.07774132358622
  C   3.90489781848079      5.23099780289677     -0.21200298962464
  C   3.13032278619702      6.38883239480896     -0.24929816132550
  C   1.74593320081581      6.23854869632219     -0.13548901455946
  C   1.33425371628160      2.43876202925941      0.15237220691642
  C   2.07786346887090      1.28130777090440     -0.09993407798146
  C   1.48104235941363      0.01976827236770      0.05286334696228
  C   2.12568325860613     -1.21739685199590     -0.14969614079308
  C   1.42144979828272     -2.40322270931102      0.04167844636679
  N   0.10824956163898     -2.40723082359514      0.38496606024759
  C   -0.52713145129248     -1.26103864576866      0.57124050099574
  N   -1.83343578023387     -1.26353150062719      0.90544257168602
  C   -2.40342474029405     -0.07527376448692      1.08184256486404
  N   -1.86764493672407      1.14079331584857      0.97683175148081
  C   -0.56520212882281      1.19209196408091      0.64152859247920
  N   0.03212677057166      2.37053398682119      0.51298370115154
  N   0.13963005079295     -0.01611595123008      0.43029256796891
  C   2.03546630636062     -3.73553519565164     -0.16531995688263
  C   1.19927132937714     -4.80445780032882     -0.51726686692407
  C   1.70027972300231     -6.08810478861707     -0.79365870234376
  C   3.06307972121629     -6.35987754714085     -0.70635250439840
  C   3.90505260892782     -5.31084982436704     -0.32057573626568
  C   3.43157046954520     -3.99195517057241     -0.03964074439682
  C   4.58473304961527     -3.23093550712687      0.37045815254879
  C   5.67250277766603     -4.07118343496608      0.31414443036028
  N   5.26959586986281     -5.31821847293371     -0.10972380620322
  H   0.91776486896231      8.19648519009654     -0.22572540922166
  H   -1.38011225921720      7.18835955493538      0.03492597548863
  H   -1.08566026519176      4.49223085522706      0.24330906134413
  H   3.96308133614136      3.09793578603818     -0.03458665623164
  H   4.99195995821266      5.30351658657889     -0.28446929986129
  H   3.58903208399437      7.37493713265047     -0.35731725845555
  H   3.11366934656048      1.31087524756733     -0.42854487074234
  H   3.15744731956426     -1.20736866438650     -0.49047254114421
  H   -3.46648098424451     -0.09826617645042      1.35222171398439
  H   0.12910857841252     -4.60914835297839     -0.58187923216320
  H   1.00784236980942     -6.88184753306442     -1.08177195271202
  H   3.45938991613421     -7.35605622922422     -0.91859080636038
  H   4.61725769040165     -2.19944400381500      0.70502171329494
  H   6.71543165534978     -3.87522101091133      0.55156054518478
  H   5.87044567451336     -6.12360305272299     -0.21436054918767
