46
Coordinates from ORCA-job ./opt_b3lyp_cdz
  N   -0.90947978864952     -7.99648207447680      0.06929716417337
  C   -1.45222948334884     -8.79310889739585     -0.91929854059928
  C   -1.37960751517865     -8.14319363213806     -2.13039708313059
  C   -0.75853086992166     -6.87232375246533     -1.88714526679205
  C   -0.40436449850009     -5.76915638856456     -2.69084913860026
  C   0.20272534022446     -4.66858465955345     -2.10742124051291
  C   0.48133928004500     -4.61532151484449     -0.71207409248654
  C   0.13656665255897     -5.70433277189261      0.10426787945485
  C   -0.47375763681237     -6.80922630247882     -0.48991111185388
  C   1.13216806127455     -3.40440449488921     -0.15800578441680
  N   1.43421045935175     -2.43545289685311     -1.05467126052021
  C   2.01867311837513     -1.31552420430542     -0.65271662326119
  N   2.31491129828924     -0.35696625353538     -1.55045150964883
  C   2.90188778023908      0.73938840919830     -1.07431880705276
  N   3.24561710967745      1.03505009224896      0.17707742387468
  C   2.96748628649605      0.10428430998799      1.11099483779847
  N   3.28016805181434      0.32901438808130      2.37768666536700
  C   3.00209327885455     -0.60325256840923      3.32342921480592
  C   2.38665276265697     -1.81058312451316      2.99580924904495
  C   2.04242353287394     -2.08061176955283      1.65824469204856
  C   1.42170064282497     -3.25510109005197      1.19965149983310
  N   2.34152881178315     -1.10280249400451      0.71040597031682
  C   3.39375226529556     -0.24991670290692      4.70707934433413
  C   4.00454527256218      0.99306282639925      4.93090993737608
  C   4.37169858807956      1.32228074457605      6.23499922066852
  C   4.15232749571339      0.45056690697036      7.34335390554073
  C   4.65356962288270      1.12004364797089      8.50877907111383
  C   5.14596422049241      2.33678783242252      8.09046481149717
  N   4.97909199715191      2.46191364707169      6.72731624826742
  C   3.53706020487070     -0.79538743397788      7.09868056722259
  C   3.16921778276869     -1.12947622028340      5.80483444141366
  H   -0.84261853242614     -8.24482523684949      1.04630488513521
  H   -1.85310735384475     -9.77477795568744     -0.67719173027998
  H   -1.72996467252795     -8.53016827060451     -3.08393506542501
  H   -0.60587102251740     -5.78054412756312     -3.76465761681649
  H   0.48656341305365     -3.80474406338095     -2.70681998212788
  H   0.33627428850010     -5.70268896179311      1.17691756784267
  H   3.13553426528817      1.50898166128328     -1.82059674077000
  H   2.15474201477733     -2.57017896966295      3.73825268380747
  H   1.18489381628832     -4.01746272461411      1.93798040784417
  H   4.17191384584158      1.65852013972202      4.08373298896851
  H   4.65199886287126      0.75072496435206      9.53125626666541
  H   5.60942431764743      3.13559837279828      8.66501220526024
  H   5.25502843472672      3.26127400871234      6.17388045435622
  H   3.35172318164404     -1.49137066887674      7.92016748180978
  H   2.69536501593284     -2.09681172567170      5.63562450845300
