44
Coordinates from ORCA-job ./opt_b3lyp_cdz
  O   -5.48483908927128      2.51105742147182      1.88961023704397
  C   -6.59237716772845      2.74489160450371      1.11397004582084
  C   -6.35984625034511      2.51874445748166     -0.20775960240887
  C   -4.98123698209156      2.10156919370254     -0.30025183782210
  C   -4.10069813480550      1.71876901417196     -1.32855038174024
  C   -2.79642317347090      1.37348892054326     -0.99718771577081
  C   -2.32738397757577      1.39617388917643      0.34372810702106
  C   -3.20041058493451      1.77715055587020      1.37927020881002
  C   -4.49689196208864      2.11701095901030      1.02475285632039
  C   -0.91946966347505      1.01426185429147      0.61723778344596
  N   -0.18929018005415      0.65188751017527     -0.46255369463471
  C   1.07967526810305      0.29398738154356     -0.31634912799374
  N   1.80081177235463     -0.06528248925389     -1.39373590549354
  C   3.06688293280497     -0.41333706481701     -1.17056420771901
  N   3.73615690481026     -0.45883427951856     -0.02099786818807
  C   3.05398048549403     -0.10618587467988      1.08469604834166
  N   3.65621436608825     -0.12615634995715      2.26494673130234
  C   2.97458519035873      0.22725016618608      3.38055382869773
  C   1.63756641163869      0.61813185962954      3.32752663366955
  C   0.96907577486045      0.65064254540952      2.08974033845297
  C   -0.37289591203585      1.02526495121601      1.90056239181638
  N   1.69622779208222      0.28160356165326      0.95943544253999
  C   3.74535476208205      0.16768106785907      4.64666407019762
  C   5.08848248671902     -0.24667370615029      4.59225125037300
  C   5.78575377043836     -0.29443341742587      5.78919755031638
  C   5.23014617175011      0.04524404981530      7.04110152213662
  C   6.29212022029155     -0.14592936381801      7.99820697221569
  C   7.36694478002711     -0.57041948026672      7.27787791671481
  O   7.09536176245646     -0.67112964174254      5.93909546081400
  C   3.88572410168729      0.45901092930955      7.08468010618403
  C   3.16666587564220      0.51441562014629      5.89722529564620
  H   -7.47508906483440      3.06989394225937      1.65818469450837
  H   -7.07751325072112      2.63369468320440     -1.01608297940799
  H   -4.43178432508972      1.69184893099730     -2.36885070091573
  H   -2.08829357719796      1.07167311550293     -1.76782298027633
  H   -2.89929322454321      1.81178991108651      2.42564791205064
  H   3.63889737997233     -0.70381739407761     -2.06035005315024
  H   1.07317523123716      0.90453024242834      4.21143741926455
  H   -0.94290833620106      1.31560484417411      2.77977303969119
  H   5.53860260181573     -0.51352904739280      3.63742702948171
  H   6.25935356202475      0.01104595080306      9.07335073830733
  H   8.38047009227584     -0.83866283072573      7.56411351065252
  H   3.41330218926445      0.73202768836571      8.03047782357346
  H   2.12602297018477      0.83647411783771      5.94079409010928
