18
Coordinates from ORCA-job ./opt_b3lyp_cdz
  C   0.62730679901379      5.38739381789121     -7.89775668180977
  C   -0.69030426073199      5.37519080049618     -8.27294235775265
  C   -1.68022579989902      4.95390054904778     -7.33464208789289
  N   -2.96781645419084      4.92590993082585     -7.65398734127148
  N   -3.87273889861554      4.51857517177482     -6.73102153372632
  C   -3.47811336536631      4.15769769035337     -5.53931619971314
  C   -2.10634236666193      4.15409791701470     -5.09966224497567
  N   -1.76317263815256      3.78036020676524     -3.88554044027063
  C   -0.43382078681400      3.81924993054853     -3.58531920125602
  C   0.54263810797835      4.21736961343596     -4.45941173999915
  C   0.18880448424362      4.62714244015817     -5.78355367574943
  N   1.08391428465788      5.02038334090676     -6.66853736940513
  N   -1.19317478988725      4.57785021184986     -6.06911209448847
  H   1.39902113056697      5.70741102031777     -8.60448438838293
  H   -1.03366605003958      5.67301678755593     -9.26208890434985
  H   -4.23409458543948      3.83489281705592     -4.82002032996619
  H   -0.17389521417027      3.50406610959199     -2.57043790129892
  H   1.59923040350816      4.24029164440995     -4.19710550769128
