44
Coordinates from ORCA-job ./opt_b3lyp_cdz
  O   -1.92734383471656      2.09606439530383     -2.08959323560494
  C   -2.73834804928502      2.64885807808137     -3.04706122734781
  C   -4.00088204288613      2.86253164322272     -2.59355112985658
  C   -4.00572806566753      2.40981929270390     -1.22146093868208
  C   -2.69504416799703      1.94092318977748     -0.97443873243613
  C   -2.27738535332536      1.43869185270669      0.27179392370354
  C   -3.26454638466616      1.41920965005642      1.27398290653281
  C   -4.57644715099610      1.86647474137293      1.04700602335233
  C   -4.96285272866809      2.36692036897574     -0.19522295027725
  C   -0.90219429853898      0.95076322413310      0.52870423784390
  N   -0.24893759290819      0.40669629704406     -0.51971501967179
  C   0.98377690447347     -0.05893252777227     -0.34859538064923
  N   1.64078372066123     -0.59994260641965     -1.39026805722941
  C   2.87070452579935     -1.04852405800788     -1.14943348013025
  N   3.56006320832017     -1.03995478895008     -0.01072074356161
  C   2.94420852389541     -0.50848743744897      1.06059009806933
  N   3.57534318803636     -0.47041669101332      2.22930188183584
  C   2.95312778719230      0.06646916912525      3.30006930357991
  C   1.66580014716636      0.59678545421395      3.23079621133720
  C   0.96860463047804      0.55876472356504      2.00946266189909
  C   -0.33058822817137      1.05451109256641      1.79586733020967
  N   1.62537364121030     -0.00449447433989      0.91612238244722
  C   3.70810199763777      0.06514854395539      4.57489782495980
  C   5.11126838450276      0.14831579033330      4.63808653665724
  O   5.96812788017396      0.28246864316004      3.58699947924308
  C   7.22926170460154      0.35855691574687      4.11972937092449
  C   7.22206655620900      0.28381264082619      5.47608140618444
  C   5.83378205572357      0.14972785265719      5.85329950432844
  C   5.14310641951473      0.04614488982866      7.07122158695638
  C   3.75266697926822     -0.04519964150039      7.03567933783209
  C   3.05453689445624     -0.03039075583756      5.81706681728695
  H   -2.25895196893768      2.82512064718648     -4.00596264217970
  H   -4.82776316136243      3.28887535724233     -3.15560249018720
  H   -3.01084356211859      1.00810805335077      2.25260296508994
  H   -5.30341381989019      1.81158083750965      1.86013714742644
  H   -5.98330815272672      2.71637685318770     -0.36687600560345
  H   3.38938644986340     -1.48694936344035     -2.01087717706075
  H   1.18529482831396      1.06723149302408      4.08637334758451
  H   -0.84504625291745      1.53262387642975      2.62711793426930
  H   8.02809678779312      0.46102266373309      3.39051996704249
  H   8.08825433759442      0.32075695019380      6.13164201280587
  H   5.68214092585974      0.03705161038740      8.02110232402096
  H   3.19071990843281     -0.13751385310749      7.96754105712202
  H   1.96809642860216     -0.13291059376125      5.83180362993229
