44
Coordinates from ORCA-job ./opt_b3lyp_cdz
  S   0.56813499934626      7.52990275142617     -0.55172669761971
  C   -0.76612819940144      6.40733337329391     -0.40050705725349
  C   -0.37506633145876      5.12087765063594     -0.18609935135684
  C   1.06073285770121      4.96850845369191     -0.13490573762385
  C   1.86874581782772      3.80241949465764      0.03908964766030
  C   3.26333345209159      3.96230691196952      0.05436233616060
  C   3.87824934956957      5.21116450988355     -0.10950703212941
  C   3.10886080846616      6.35440303533805     -0.30673220243584
  C   1.71696787057004      6.21973920219062     -0.31856429826311
  C   1.28984015030802      2.44432493681602      0.19763963791258
  C   2.02598104376349      1.29965705377620     -0.12076146583294
  C   1.46132139607323      0.02896330777138      0.08045471234234
  C   2.10407725763362     -1.19928458496211     -0.17284931178649
  C   1.43138675649616     -2.39272979923042      0.07852172015395
  N   0.15161156089741     -2.41615539977041      0.52119380162251
  C   -0.48427214465415     -1.27592245290673      0.75470556826427
  N   -1.75998388181543     -1.29658934330528      1.18451643893529
  C   -2.33490125872336     -0.11615102323809      1.39812702287827
  N   -1.82395472760497      1.10595338200307      1.25090973901382
  C   -0.55030722683554      1.17434070459430      0.82532785220928
  N   0.02164319135773      2.36214528519848      0.65678582307630
  N   0.15485124921572     -0.02386893566502      0.56307080526888
  C   2.03952038534641     -3.72170569001508     -0.18701528342892
  C   1.19460284048563     -4.75010203372574     -0.62371785292471
  C   1.68855163573757     -6.01534831848161     -0.97410468936690
  C   3.04811506083537     -6.29816533536936     -0.87399526843408
  C   3.89868011637261     -5.29478543635029     -0.39547094816336
  C   3.42927119352531     -4.00075938084206     -0.03584276343625
  C   4.50244793951261     -3.18897719882906      0.49210342430896
  C   5.70618999842837     -3.82694140677232      0.50077102930385
  S   5.62933338400030     -5.45901768858741     -0.11980706149387
  H   -1.78604998312911      6.78202670391286     -0.47212915948027
  H   -1.06288983300584      4.29441041295553     -0.03588488091202
  H   3.89818963230320      3.09325017233696      0.23083282654975
  H   4.96714165148089      5.28529189488589     -0.07713919716800
  H   3.57768610569700      7.33132534844972     -0.44140030814479
  H   3.02726078909365      1.34971506068147     -0.54209479542280
  H   3.10490050825751     -1.17714838639418     -0.59734214613000
  H   -3.37522658504490     -0.15330696741328      1.74358337403140
  H   0.12824735470165     -4.53646896962171     -0.69728670138746
  H   0.99891906727275     -6.78376205306877     -1.32973482429058
  H   3.44028407499872     -7.28005716391389     -1.14669141657409
  H   4.37368475435389     -2.18155766279331      0.88215049324452
  H   6.65794591795093     -3.43507441521302      0.85603419812212
