44
Coordinates from ORCA-job ./opt_b3lyp_cdz
  S   -5.78204509848061      2.62421712362901      2.21782806339724
  C   -6.91349844793491      2.83047047474350      0.89420866768484
  C   -6.37494164272661      2.55003439512561     -0.32554942615412
  C   -4.99505457817208      2.14656397139575     -0.24865318910914
  C   -4.10373016897388      1.77764987758820     -1.27784916085070
  C   -2.80114199514019      1.41891587383608     -0.97091474138364
  C   -2.33076614705852      1.41390386169833      0.36870795876906
  C   -3.20664047161880      1.77716608963131      1.40310910592426
  C   -4.51819066529447      2.13680456664956      1.08914151448944
  C   -0.92370745095816      1.02261723699575      0.63594563976177
  N   -0.20440295728395      0.65327823416228     -0.44831980821458
  C   1.06328646602948      0.28619139276746     -0.31075896611294
  N   1.77338026520179     -0.08030319107237     -1.39268401539530
  C   3.03812292604103     -0.43895617356881     -1.17838329143950
  N   3.71511701185883     -0.48771835976562     -0.03359803958158
  C   3.04424163817255     -0.12645450533050      1.07619735556387
  N   3.65558836752005     -0.14726255542326      2.25176917055829
  C   2.98502442244857      0.21453604075576      3.37128081555986
  C   1.65069862347091      0.61500589735776      3.32791669178582
  C   0.97282706153301      0.64905938899817      2.09515289248055
  C   -0.36751851442082      1.03375747677420      1.91510688392670
  N   1.68859530574925      0.27133553950711      0.96047432646079
  C   3.76338358887607      0.15431957533991      4.63261732159144
  C   5.10046906595027     -0.26771234029192      4.57777279549309
  C   5.84138587827866     -0.32851615503005      5.75841259477364
  C   5.28556438644287      0.02395108350446      7.01698954228129
  C   6.23706838395311     -0.11778290918644      8.08686111653788
  C   7.45368205876219     -0.55674285727269      7.65526124450307
  S   7.52370384330999     -0.82606428944247      5.92581916247637
  C   3.93977335756769      0.44695855007844      7.05665429539321
  C   3.19979667384493      0.50876424898196      5.88690299598342
  H   -7.92976745068401      3.15468699783390      1.11334512394065
  H   -6.93147364756132      2.62350720583394     -1.26050889907738
  H   -4.44375727198024      1.77525501830689     -2.31626304790437
  H   -2.10034755796734      1.12981762398108     -1.75297829426102
  H   -2.88391960640777      1.78000656165903      2.44445601586514
  H   3.60101027724305     -0.73615991716118     -2.07171570616229
  H   1.09616753140992      0.90803555160422      4.21592616919982
  H   -0.92714448238239      1.33399818527736      2.79766021674504
  H   5.52423799786992     -0.53708313293978      3.61072328212212
  H   6.01156997298808      0.10163550512561      9.13106423478283
  H   8.34156844468082     -0.74585935473765      8.25694050690647
  H   3.48485744307019      0.72502000716961      8.01022451453357
  H   2.16253716277080      0.83947218490968      5.94586636615762
