46
Coordinates from ORCA-job opt_b3lyp_cdz
  H   -4.19522467468467      1.41995712098976     -0.26829850998663
  N   -5.02262248456562      0.83543519985777     -0.43796437804817
  C   -4.95363495565652     -0.46145941951391      0.07010922190825
  C   -6.13266973091203     -1.21464572516125      0.25722660675494
  C   -6.09328132193551     -2.51412852191088      0.74956004571673
  C   -4.87141325378911     -3.09887271499514      1.10244862580317
  C   -3.70327380960186     -2.36481663275679      0.94105631859584
  C   -3.69799707662701     -1.05371031732984      0.41684428308969
  C   -2.39901437743561     -0.35999471522524      0.24848832907530
  C   -1.20173854341498     -1.06797466640993      0.12225575262550
  C   0.01506000299593     -0.37479794402809     -0.00156097365719
  C   1.28285322804009     -0.96990023324006     -0.12420808949311
  C   2.42044512052650     -0.16972283826053     -0.25135452015078
  N   2.32876557671797      1.18400914871541     -0.22881653224844
  C   1.14588296793182      1.77923490839020     -0.10832804133543
  N   1.07529500862164      3.11968001845524     -0.09359123952518
  C   -0.14409437125281      3.64864387326725     -0.00477239938044
  N   -1.31789484255108      3.02512960579151      0.08504780449502
  C   -1.28233343218926      1.68334074084392      0.10199490464387
  N   -2.41447507336920      0.99671171692887      0.22384418614806
  N   -0.04011583188220      1.02030244695731     -0.00268914042736
  C   3.77024308686023     -0.75889181414838     -0.41816433032186
  C   4.97475231603433     -0.06928803950844     -0.07022298221323
  C   6.20979002709643     -0.72699122204688     -0.25577778815186
  C   6.27369491476322     -2.02561521421484     -0.74786305839945
  C   5.10222784818660     -2.70502714330072     -1.10207324241848
  C   3.87954981523189     -2.06550934264313     -0.94213127726358
  N   4.94045056610126      1.22920403915902      0.43737265628869
  H   4.06991979357658      1.74668236286819      0.26602278798841
  H   -7.09808868161957     -0.75482570796550      0.04690733099425
  H   -7.02784537404006     -3.06259673302307      0.88840868996210
  H   -4.83459121873059     -4.10620337618565      1.52068876634598
  H   -2.75843477071048     -2.80735671297648      1.25900795391975
  H   -1.17110531819235     -2.15399393194363      0.08579780825718
  H   1.33821218609410     -2.05490125459745     -0.08587804172825
  H   -0.18743536646614      4.74387416276264     -0.00570433172926
  H   7.13562701878228     -0.19229460528198     -0.04452660061576
  H   7.24880154622938     -2.49861596241759     -0.88550997631716
  H   5.14557378544158     -3.71218109084452     -1.52012539502742
  H   2.97293560843594     -2.58124115748611     -1.26110482288977
  C   -5.99559141845449      1.34619463800322     -1.26971440700054
  O   -5.98983553203503      2.48780826545318     -1.68080802947996
  C   5.86858027155619      1.81551639102360      1.27050298313511
  O   5.77195941863846      2.95332934380194      1.68084473422091
  H   -6.77873822028287      0.60485177285710     -1.54750946402078
  H   6.70736416853661      1.13856881828990      1.55032940086133
