44
Coordinates from ORCA-job ./opt_b3lyp_cdz
  H   -0.78296830910464      4.30484861478351      0.31175816810602
  N   -0.13072222072662      5.08457287828054      0.26015407042324
  C   -0.34355038450744      6.44207632423898      0.29933823800105
  N   0.75544679560624      7.15429314275672      0.20219149097861
  C   1.76699094892868      6.20999972419019      0.09069434301832
  C   1.22312686702824      4.89643669594128      0.12542928609512
  C   2.02097738725421      3.73135156677881      0.03151890169191
  C   3.40506875220807      3.95971307519780     -0.10020894080701
  C   3.95371884467491      5.25090073887241     -0.13570493149751
  C   3.14871897668950      6.38971901833933     -0.04140605253209
  C   1.42138548729018      2.38916603400764      0.07097628015636
  C   2.16662764533383      1.21339120240512     -0.01634356039064
  C   1.51824035773229     -0.03289027731938      0.02821359676856
  C   2.15202788765194     -1.28501354471627     -0.04995483128133
  C   1.39313381834053     -2.45393166473500      0.00627239950359
  N   0.03801107839376     -2.40951312612356      0.13661745862298
  C   -0.58798007712190     -1.24374100606546      0.21254086199655
  N   -1.92845259115200     -1.21844364327933      0.34070392397624
  C   -2.49324488521465     -0.01460211191271      0.41180282300792
  N   -1.91434858641175      1.18402957226036      0.37367187631626
  C   -0.57371073066480      1.19710747274125      0.24546922678880
  N   0.06582856929791      2.35711939681756      0.20034982430970
  N   0.12594058117768     -0.02653650290527      0.16134725740483
  C   1.97703060942239     -3.80150411042937     -0.06878658239424
  C   1.16528646749984     -4.95922698795489     -0.00905361348001
  N   -0.19110803455959     -5.13498381569560      0.11644508826257
  H   -0.83407080891156     -4.34935029614555      0.19016062440177
  C   -0.41992253995142     -6.49044531959380      0.11829977143783
  N   0.67090084621861     -7.21266030892402      0.00428270614429
  C   1.69376199140644     -6.27767383796922     -0.07874269361996
  C   3.07364583370907     -6.47000613585182     -0.21234981195723
  C   3.89224269611369     -5.33862294697967     -0.27304145367893
  C   3.35872320227184     -4.04250379973337     -0.20319510592460
  H   -1.34677973361272      6.85406788894512      0.40277781002053
  H   4.08509607605823      3.11046978314615     -0.17847191172997
  H   5.03501436792468      5.36142831645216     -0.23955335129281
  H   3.57211237475025      7.39553707905964     -0.06873615685307
  H   3.24894455324941      1.21785717372543     -0.11950869264762
  H   3.23418464284410     -1.29932062208266     -0.15391806553062
  H   -3.58489782125842     -0.00962465871676      0.51608530542885
  H   -1.42822656000931     -6.89323051129408      0.20769336446846
  H   3.48526837948648     -7.47962347995173     -0.26637998310421
  H   4.97247082238316     -5.45902199037197     -0.37702404269436
  H   4.04897642226189     -3.19955500018912     -0.25574491591363
