44
Coordinates from ORCA-job ./opt_b3lyp_cdz
  H   -0.78154738729468      4.32254813756700      0.30924689857995
  N   -0.10870120855293      5.08178611676735      0.25434059337557
  N   -0.46537832947011      6.38666283064193      0.30627600606103
  C   0.65692431369102      7.07900803370790      0.20620592190361
  C   1.79223940823524      6.21442418128713      0.08425128621347
  C   1.23376845285716      4.90392216366882      0.12133147885064
  C   2.03778520736707      3.73260917607905      0.02776745942161
  C   3.41690814720114      3.95562494931305     -0.10369030943729
  C   3.97926200252279      5.24550795394018     -0.14152205588594
  C   3.18005914654886      6.38228062543499     -0.04867154920615
  C   1.43906920274721      2.38924930179967      0.06841876088260
  C   2.18596498604211      1.21401889349880     -0.01848861646667
  C   1.53770736196510     -0.03220125393642      0.02786241406114
  C   2.17152811781120     -1.28431660394209     -0.04923806063727
  C   1.41111780373540     -2.45261555819786      0.00914913574275
  N   0.05818676152607     -2.40973485426584      0.14011149432629
  C   -0.56865592226734     -1.24303676579547      0.21508953217718
  N   -1.90778414136834     -1.21743003244912      0.34399765745487
  C   -2.47337415862989     -0.01375438531747      0.41393041872834
  N   -1.89386265406530      1.18466019630894      0.37391827699308
  C   -0.55454520516527      1.19795451894532      0.24518180385678
  N   0.08572234994411      2.35883392904861      0.19852695869814
  N   0.14572005754727     -0.02579109836917      0.16190598613660
  C   1.99424169261423     -3.80141168008073     -0.06454059821626
  C   1.17657197297562     -4.96526554915009     -0.00091923443705
  N   -0.16803895172158     -5.13077975938578      0.12629371008925
  H   -0.83197033971181     -4.36539133116230      0.20080964171879
  N   -0.53990524583346     -6.43230860174854      0.14518347288699
  C   0.57439626882114     -7.13494031240403      0.02874432997599
  C   1.71981258373401     -6.28083720517886     -0.07047308802855
  C   3.10572819003873     -6.46146419664366     -0.20647081387444
  C   3.91820022045767     -5.33211226850831     -0.27000602207625
  C   3.37084374139283     -4.03711929405278     -0.20026826319443
  H   0.62883361523567      8.16696678073603      0.22331942873431
  H   4.09272544321046      3.10271465065292     -0.18078894399820
  H   5.06122219416268      5.34730058150487     -0.24557585066962
  H   3.62326572916971      7.38041969090957     -0.07873502854056
  H   3.26822109367256      1.21739101889384     -0.12247865021305
  H   3.25366847227476     -1.29763420630863     -0.15373441864674
  H   -3.56479778252858     -0.00873402210530      0.51874777515146
  H   0.53366120970731     -8.22258473908082      0.01846860441518
  H   3.53733563230757     -7.46363105430228     -0.26119884312041
  H   4.99903108977867     -5.44385674182915     -0.37557406031920
  H   4.05666885731563     -3.19050221649104     -0.25513463946694
