52
Coordinates from ORCA-job opt_b3lyp_cdz
  H   -4.10892581881353      1.35676666592189     -0.10523505709014
  N   -5.03253952805369      0.91419761564060     -0.18177003150385
  C   -4.98908083458923     -0.46303949801673      0.02775160001808
  C   -6.17713532437858     -1.22783940417652      0.06498985767680
  C   -6.14037685608014     -2.59550509312188      0.30229277775081
  C   -4.92055421522356     -3.25174411767307      0.51467382853790
  C   -3.74564870577693     -2.51772282676589      0.46272062838048
  C   -3.72450344700160     -1.12566523751775      0.20776832221360
  C   -2.41325713499914     -0.44282162752976      0.12925499069429
  C   -1.20302281947875     -1.14081552327491      0.05817555781178
  C   0.01791311933169     -0.44660403083292      0.00030812227576
  C   1.29007416784393     -1.04194000803327     -0.05572879542220
  C   2.44107778627356     -0.25041696852209     -0.12988909762447
  N   2.33016851272822      1.10813319923144     -0.12129417219246
  C   1.14960189502773      1.70450234643570     -0.05410837533893
  N   1.08108487153849      3.04899608336393     -0.03877444422188
  C   -0.14177519161431      3.57674508255777     -0.00552270027121
  N   -1.31895204518184      2.95377152615363      0.02926147096896
  C   -1.28059380774794      1.60812410470784      0.04832507248091
  N   -2.41014747306858      0.92020332861893      0.11715784486493
  N   -0.03747135570189      0.95002009966433     -0.00188092446403
  C   3.80211767153773     -0.82779466469026     -0.20823508957216
  C   5.01045554070957     -0.06740995180446     -0.02853616047692
  C   6.25512439777706     -0.73609080686010     -0.06630029319266
  C   6.32627933849942     -2.10245052921126     -0.30344311303158
  C   5.16198740327388     -2.85296399385769     -0.51515601796650
  C   3.93284061945900     -2.21387095427793     -0.46296294336687
  N   4.94486386455470      1.30883361682163      0.18166505067655
  H   3.98922243520560      1.67706712780696      0.10456718048120
  H   -7.11769290635607     -0.70685732089113     -0.09347351163913
  H   -7.07825353556673     -3.15556705268842      0.33222428368628
  H   -4.88923615101520     -4.32279309342250      0.72258955020545
  H   -2.80657511962728     -3.03766898326334      0.64949855189784
  H   -1.15603059407597     -2.22527676180203      0.02353486552591
  H   1.32954814373311     -2.12658549363127     -0.01759033170107
  H   -0.18528112919379      4.67214052564044     -0.00705510808376
  H   7.15184384419049     -0.14267203610386      0.09144794375400
  H   7.30543816419154     -2.58670292950839     -0.33384210058859
  H   5.21518808279276     -3.92314885791472     -0.72305786126648
  H   3.03761483625872     -2.80614918567109     -0.64969955983502
  C   -6.11945655289391      1.73335614235637     -0.43188957598936
  O   -7.27783738892144      1.35438596726450     -0.52873633136832
  C   5.96372595208500      2.21109424894412      0.43222665090067
  O   7.14862669350829      1.92490657002188      0.52685738701992
  C   -5.74306025858288      3.19953729005831     -0.58817901311191
  H   -4.67429801898895      3.40691772091380     -0.43032213879342
  H   -6.03188336278310      3.52823220681335     -1.59927017723158
  H   -6.34043359433505      3.79042379852267      0.12335721797073
  C   5.47206974411491      3.64203876461543      0.59503636044965
  H   4.39410400577051      3.76806863353648      0.41535504283148
  H   5.71111147561386      3.97919859164668      1.61646305729225
  H   6.03817469202588      4.28587233380812     -0.09552695802458
