48
Coordinates from ORCA-job ./opt_b3lyp_cdz
  H   -0.70781794429895      4.24063350652002      0.25540135221566
  N   -0.09609387796306      5.05530464540611      0.20965220688144
  C   -0.49605061916763      6.38664098229162      0.26688977684585
  O   -1.63733627048165      6.77697810331929      0.38039513506548
  C   0.78835182282126      7.22597135717380      0.15786024521770
  C   1.87825249466495      6.19244443166716      0.03999217086764
  C   1.27501598215737      4.91046834696670      0.07832245740540
  C   2.04228213270651      3.72547012124573     -0.01084514045915
  C   3.44469962665885      3.90062698728842     -0.14094536258169
  C   4.03865448395051      5.15406989241184     -0.17906702881890
  C   3.24913386720065      6.31870723788052     -0.08755998873335
  C   1.42580169528593      2.38719543839848      0.02900421219308
  C   2.16933093282964      1.20791449777915     -0.05501277571153
  C   1.51992063510946     -0.03773084327822     -0.01031739436857
  C   2.15398251933075     -1.28986340962942     -0.08444766597162
  C   1.39600667074128     -2.46156917326633     -0.02818953066897
  N   0.04287115083474     -2.41372703075308      0.09828956040453
  C   -0.58538311696742     -1.24729204123658      0.17060173860747
  N   -1.92408512420981     -1.22145563506277      0.29516993156411
  C   -2.48987998476154     -0.01747315927710      0.36219775888638
  N   -1.90935053343684      1.18071925803284      0.32315268304952
  C   -0.57040560578231      1.19302711279119      0.19918447980828
  N   0.07214940666005      2.35304047522135      0.15430473598974
  N   0.12883345509677     -0.03069617430643      0.11889344374175
  C   1.99596000075760     -3.80600771110094     -0.09985343828606
  C   1.21430546945008     -4.98328168028695     -0.03718013948503
  N   -0.15835754740303     -5.11437051832417      0.09235106251395
  H   -0.76006822066274     -4.29357367432819      0.15729480167357
  C   -0.57450290040649     -6.44169170300300      0.11959062170214
  O   -1.72036697179438     -6.82057338676612      0.22553132767213
  C   0.69943209599325     -7.29390740146750     -0.01021820132572
  C   1.80177361260741     -6.27131665197364     -0.10565919068452
  C   3.17088032440415     -6.41137155711401     -0.23774455013014
  C   3.97451102078658     -5.25467513775440     -0.30347500035741
  C   3.39600626467549     -3.99527910292277     -0.23573613310178
  H   0.71521153820320      7.89397511517752     -0.71589332506993
  H   0.88180187240732      7.86860690287788      1.04852761025025
  H   4.08746058132559      3.02319418999195     -0.21446602610192
  H   5.12222507952111      5.23661017110530     -0.28033677067184
  H   3.71654577745039      7.30615736540742     -0.11735215807867
  H   3.25139355826895      1.20523327124100     -0.15519804712449
  H   3.23603028607187     -1.29809296016078     -0.18451166694729
  H   -3.58150808347540     -0.01195566134406      0.46338183628899
  H   0.78589798286988     -7.95797528249266      0.86529568583902
  H   0.61732440301435     -7.94065457526844     -0.89904175223574
  H   3.62613275440110     -7.40351636210577     -0.29080323241202
  H   5.05688365135727     -5.34809908819433     -0.40804870864364
  H   4.04944365119216     -3.12434948878101     -0.28999160671498
