24
Coordinates from ORCA-job ./opt_b3lyp_cdz
  N   3.72938513065034      2.60369444894283      1.03558612081591
  C   3.33579939924343      1.37464590774988      1.72999424620534
  C   1.91112677723696      0.89454524317313      1.50783174265882
  C   1.52036651966540      0.48817756721686      0.20611964162823
  N   2.40312685079104      0.53376353021069     -0.81326881860438
  C   1.95859269536925      0.11508969013561     -2.00081243316793
  N   0.75451767813984     -0.33254721666445     -2.31685321424769
  C   -0.16701019395273     -0.38335101235214     -1.32604060398018
  N   -1.38534184369212     -0.81647787941751     -1.59776474083695
  C   -2.29075575769840     -0.86294427487209     -0.59272473786085
  C   -2.03020815849169     -0.48989144304530      0.70022123863324
  C   -0.72919355448512     -0.01670206404538      1.03207834295148
  C   -0.33271252425247      0.39209686599614      2.30936420706561
  C   0.97045904431523      0.83423614781979      2.53122635207301
  N   0.20687772785432      0.03470485701321     -0.00888937267573
  H   3.66514121220015      2.42193569661310      0.03048624718334
  H   3.03910984185786      3.33507116131728      1.22680051917624
  H   4.03502788034983      0.58367177258791      1.41224448766336
  H   3.48467604151676      1.51741959859007      2.81397020283279
  H   2.68757960287688      0.14914576291945     -2.81966333396349
  H   -3.28370441438165     -1.22900447428757     -0.87430777585155
  H   -2.78461479444491     -0.54284825315859      1.48456345671538
  H   -1.06611054163131      0.34791447960551      3.11414285167976
  H   1.26772538096319      1.14060388795169      3.53837537390619
