23
Coordinates from ORCA-job opt_b3lyp_cdz
  N   4.03275213464160      0.21178669603160      1.59066808210018
  C   3.45207469913929      1.28128009318714      0.99774943580209
  O   4.04180417764600      2.34086365305264      0.79131456385208
  C   2.00336662542463      1.14210438840136      0.57834909325920
  C   1.20052390263107     -0.01165210165769      0.74502652982017
  N   1.67133739558758     -1.14294572474907      1.31744942008094
  C   0.83170549956027     -2.17303450008688      1.42573283509194
  N   -0.43034414982369     -2.24212595629957      1.04080019552611
  C   -0.95593001876312     -1.13962745328757      0.46148160606462
  N   -2.21768848513190     -1.16928154233065      0.06231622446061
  C   -2.73717966979351     -0.06697768900850     -0.51540642794999
  C   -2.03738467708915      1.09727560812406     -0.71990833907177
  C   -0.68327073810584      1.16563872478589     -0.30487394339501
  C   0.13162437133446      2.29865406663797     -0.46040843223460
  C   1.44245735182158      2.27507234482542     -0.02518721337250
  N   -0.14041644627349      0.02450879998548      0.29513180719602
  H   5.00298520096220      0.30328842962408      1.86538237284192
  H   3.49341451691371     -0.64223637413559      1.72746902813471
  H   1.24393784021188     -3.07481634868012      1.89376557416322
  H   -3.78426262724508     -0.14763666121525     -0.82580441727101
  H   -2.48604590619568      1.97153079622937     -1.19018339421717
  H   -0.30203562335786      3.18161522002900     -0.92936002955725
  H   2.10006049090504      3.13950357953691     -0.13256060332446
