28
Coordinates from ORCA-job ./opt_b3lyp_cdz
  N   3.93272385748909     -0.02274065512335      0.72746136088284
  C   3.57437567339991      1.13461759909212     -0.10691851562952
  C   2.07644494511496      1.22699694810832     -0.30108103795203
  C   1.29498840626820      2.21350927135461      0.30105927323163
  C   -0.08361262502835      2.31931808068622      0.11446461623969
  C   -0.91756012632023      3.40594183814384      0.75763198893703
  N   -1.76735489739463      2.86136844279394      1.82788591783670
  C   -0.71988725771063      1.37225628470601     -0.70708474138118
  N   -2.06336254527871      1.41071844115666     -0.91729039835472
  C   -2.55834849508325      0.48107343177720     -1.71754422428563
  N   -1.90793925167433     -0.50519038464223     -2.34833267820709
  C   -0.58820765199402     -0.57671780714232     -2.15290153958822
  N   0.13169470848264     -1.53611073933059     -2.74141084728289
  C   1.44702305188897     -1.54328803303907     -2.48953475382774
  N   2.14173049510614     -0.71467700085470     -1.72764968306582
  C   1.43908148207842      0.28081532178104     -1.12283277864279
  N   0.05431005565179      0.37440375058549     -1.31335542596816
  H   3.72353415013080     -0.86536930679098      0.18396275430318
  H   4.94936450835336     -0.03034333928126      0.84661945869393
  H   3.91090386030255      2.04840245148526      0.40962616533616
  H   4.05129104581098      1.13143088532991     -1.10904211109096
  H   1.78866318536823      2.94331426938193      0.94892407119453
  H   -0.23306856273955      4.14533891964987      1.20469539713065
  H   -1.48202448972714      3.92602623986269     -0.04394166266635
  H   -2.29413408034860      3.63399281964039      2.24428046026076
  H   -2.47423377530079      2.26870492377913      1.38261938953670
  H   -3.64087302375311      0.51764991922185     -1.88781237329802
  H   2.01735735690740     -2.34190257233211     -2.97853808234270
