26
Coordinates from ORCA-job opt_b3lyp_cdz
  H   -1.32657860346254      3.09088499892257     -2.77710286903465
  N   -1.47333134722568      3.69350192983252     -1.96947561053505
  C   -2.36918741912601      4.70846020490042     -1.80180882053515
  C   -2.18835820982884      5.23544435659331     -0.52944543832594
  C   -1.14210940569853      4.50288748754546      0.08274490599519
  C   -0.70468394321872      3.53911539793043     -0.83484589912661
  C   0.34560813938253      2.53384843855929     -0.70182911312858
  C   1.08626473023468      2.44002729625019      0.49264484609183
  C   2.09237007772009      1.50871419404553      0.67653323828753
  C   2.41969089663640      0.60413681366138     -0.34005037975765
  N   3.40277701848614     -0.31881564092458     -0.18333625368033
  C   3.61825674020049     -1.11528334035384     -1.21247627139383
  N   2.98542393592948     -1.12745556547495     -2.39853969382427
  C   2.01753251276205     -0.23249965666053     -2.57711963998174
  N   1.34490092294321     -0.18895937747850     -3.73642080515881
  C   0.39015063204071      0.73558686225389     -3.83763436851612
  N   0.01232469003401      1.62866734689869     -2.93422420540880
  C   0.66964416076373      1.62064137141819     -1.73984979010966
  N   1.69349221665233      0.68290853440514     -1.53481222968217
  H   -3.06442618634295      4.98075087762460     -2.59146318736019
  H   -2.74990573923474      6.05764285099821     -0.09224172329937
  H   -0.75228383801042      4.66367207768755      1.08485905647120
  H   0.85586855513929      3.13050645798002      1.30476847162810
  H   2.66305837336354      1.43868990386715      1.60099019080099
  H   4.41087120357098     -1.86276327436109     -1.09220869917354
  H   -0.15110233071128      0.75915675587890     -4.79078901724234
