17
Coordinates from ORCA-job ./opt_b3lyp_cdz
  C   1.40937977963952     -6.80398677371053      6.80939875548290
  C   0.14013910299923     -7.30707889873362      6.89047225320306
  C   -0.94720657788429     -6.58526744325823      6.29723738777478
  N   -2.19322013683613     -7.01678167385169      6.34107809820221
  N   -3.17499460748720     -6.27285579624791      5.75250087434707
  C   -2.88483340703511     -5.15117018507387      5.15518522691778
  C   -1.55223740191495     -4.60221642720155      5.05799860892025
  N   -1.30735572379162     -3.46494834147864      4.44431923617628
  N   -0.01749570502517     -3.01093043203517      4.39476857598695
  C   0.93824040226035     -3.70210599404032      4.94879210746076
  C   0.75384596122537     -4.95921851480858      5.64127950711268
  N   1.73904837120383     -5.62745196704745      6.18703339345495
  N   -0.57532953091410     -5.38484215550377      5.66806000616845
  H   2.24856257017527     -7.34337676636083      7.25712654641894
  H   -0.09614451499158     -8.24499136155306      7.39093176657311
  H   -3.69733793231405     -4.58363070527469      4.69573523772560
  H   1.95644935069046     -3.30918656382005      4.88984241807426
