31
Coordinates from ORCA-job ./opt_b3lyp_cdz
  N   -1.93942532911210      1.58799036752476     -2.11199061905310
  C   -2.64503356409893      1.76423939054722     -0.96036860407389
  C   -2.09950686563937      1.49447510515613      0.34418572666666
  C   -2.92709715670211      1.74084574875756      1.46758280458193
  C   -4.21707228221289      2.23442028117373      1.36293338990703
  C   -4.73584236624310      2.50707156868780      0.08419670129253
  C   -3.96904435884603      2.27545540279252     -1.04284712252885
  C   -0.73552614731347      0.97592372618269      0.54812251684853
  N   -0.06198235034710      0.52920473014672     -0.55278273323285
  C   1.16162554589027      0.03459056369064     -0.45879278186499
  N   1.78483315552307     -0.38991146993072     -1.57764795217017
  C   3.01082767974804     -0.88911655770684     -1.42641605145999
  N   3.71914980878987     -1.02668014539378     -0.31113726781099
  C   3.12588217037333     -0.59999671283108      0.82620787377845
  C   3.77617751008455     -0.67909168724450      2.06414832375762
  C   3.14341647388674     -0.22475032403227      3.22163608138449
  C   1.86431719599940      0.30912125674182      3.17208458640016
  C   1.17609324272179      0.40053357344641      1.94325528364155
  C   -0.12226770677291      0.92696404535467      1.80031216643107
  N   1.82460800249996     -0.05773510214578      0.78906131508639
  H   -2.43492404188053      1.65190531277836     -2.99108458258355
  H   -1.07078850321417      1.05523793025316     -2.04473739926162
  H   -2.54502522872320      1.50859956601236      2.46199163849966
  H   -4.82003237705067      2.39873191140869      2.25741089454925
  H   -5.75143853734896      2.89593431279775     -0.02618048080637
  H   -4.37753960995241      2.48402785951633     -2.03584081194534
  H   3.49936065228708     -1.23167507065897     -2.34687149653451
  H   4.77863979238195     -1.10278580016690      2.06418173618523
  H   3.66332053395233     -0.29086718291509      4.18051883268710
  H   1.35776357942084      0.66726922119565      4.06787823097472
  H   -0.60094891810126      1.30393817886137      2.69999980065384
