17
Coordinates from ORCA-job ./opt_b3lyp_cdz
  C   0.00437845605142      7.74125203591405      6.70001879922794
  C   -1.32024370084100      7.40565285878813      6.86864239882802
  C   -1.98386035548601      6.58384860479385      5.91503864056120
  N   -3.27402556881678      6.24566882083101      6.06134305989502
  N   -3.85460725320076      5.47050173664859      5.13800457648956
  C   -3.17803745409555      5.03737142864026      4.09198078576586
  C   -1.80514942324391      5.34796955733143      3.85801308489739
  N   -1.12815213656801      4.90787618673418      2.80059230265386
  N   0.17751527188044      5.26132089856578      2.67001287683698
  N   0.78422177342783      6.00138704717110      3.52374415279847
  C   0.11579898610329      6.48544561763737      4.64663170331785
  C   0.74027349219407      7.28309857203015      5.58258791699529
  N   -1.22406408976990      6.15036990566810      4.82430276678624
  H   0.49866262802174      8.37285726636627      7.44139414949893
  H   -1.91574507779588      7.74095270969311      7.71663703259607
  H   -3.69653536187665      4.40792098769698      3.36711039901117
  H   1.78791981401565      7.53085576548957      5.42108535384012
