43
Coordinates from ORCA-job ./opt_b3lyp_cdz
  N   0.07486041589122      5.07260799216293      0.23537116217610
  C   1.42515063450758      4.92055529262210      0.21430844210223
  C   2.25012461418924      6.07813274962900      0.22110295435418
  C   3.63002911250433      5.98667765768457      0.18908081581687
  C   4.26381758831317      4.73000132402180      0.14847443775752
  C   3.48156209145169      3.58816199861136      0.14323095602528
  C   2.06562834778280      3.63483505949820      0.17708587064128
  C   1.33253209968663      2.36093880308435      0.17581830180762
  N   2.05607686341350      1.23532065294990      0.13068019619248
  C   1.40895759123128      0.05965020189419      0.12954403204754
  C   2.09111574288229     -1.15867436508990      0.08286451528625
  C   1.37880457780244     -2.36192916820738      0.08334991822114
  O   2.10136632078289     -3.50310096756774      0.03679792829365
  C   -0.01988116172566     -2.37196483017104      0.13036743516950
  C   -0.73371981494861     -1.16964610295697      0.17797111399817
  N   -2.07340802960431     -1.14392206417667      0.22428945862410
  C   -2.68349201167550      0.04947172747334      0.26813597993762
  N   -2.03122248208156      1.24321852982641      0.26894618666503
  C   -0.69792913447049      1.24503714024472      0.22333412019024
  N   -0.02882958231116      2.39664341071112      0.22244394031933
  N   0.00088617573002      0.02890306011524      0.17614948781206
  C   -4.15221356811294      0.05374886659411      0.31937381081701
  C   -4.94150707541200      1.25369008153388      0.36589728754462
  N   -4.39460942912403      2.49714341032275      0.35967294253826
  C   -6.35602864380452      1.12164278263682      0.41735201145974
  C   -6.96993131230945     -0.11786548204140      0.42139290500642
  C   -6.20249377101069     -1.29754244160415      0.37414599443164
  C   -4.82313061387916     -1.19438724458050      0.32458289419422
  H   -0.32101466644410      5.99829471470596      0.30977218354639
  H   -0.49717625642778      4.22985217347808      0.26581266578520
  H   1.76522668836682      7.05818382439249      0.25094616805144
  H   4.22719138723229      6.90261925466257      0.19540978011815
  H   5.35238215773130      4.65634650739892      0.12250054210440
  H   3.94001721539682      2.60034804146762      0.11407839883488
  H   3.17794669358517     -1.14360676123046      0.04655659897791
  H   1.49777038761688     -4.26207486106978      0.04221420437123
  H   -0.60058740262576     -3.29466235627739      0.13219961411043
  H   -3.37835112028544      2.56958194303285      0.33643957329857
  H   -4.99515186949737      3.30688320975294      0.41188775590823
  H   -6.95913083414994      2.03347508539780      0.45362769403600
  H   -8.06114837078273     -0.17425984214910      0.46169590406239
  H   -6.68573661867815     -2.27609333591716      0.37699105622886
  H   -4.20007293673677     -2.08724567286674      0.28810276113565
