48
Coordinates from ORCA-job opt_b3lyp_cdz
  C   -3.52558542211338      8.94216543725397     -1.07141240691583
  N   -2.93798424136548      8.44845795560068     -2.29241729053225
  C   -3.33799011431771      8.80752198869460     -3.54174387647302
  C   -4.40531729324416      9.73303579381674     -3.71159941706022
  C   -4.83616440365546     10.11932448986640     -4.97074439693586
  C   -4.22891633085309      9.60610548009101     -6.12983627367954
  C   -3.18747883199412      8.70345114797307     -5.99169711314894
  C   -2.71100021776273      8.27748861117079     -4.72873745938149
  C   -1.60050719541288      7.31630214681718     -4.70940828424433
  N   -1.11345366450745      6.91065978582468     -5.89084915085079
  C   -0.09994146787008      6.03472000307457     -5.89575802589741
  C   0.46996248173239      5.55844762502985     -7.08777544149108
  C   1.52283553266085      4.64836136362880     -7.04564471397093
  C   2.03873332150750      4.18623177587810     -5.83782472871239
  C   1.49934971034433      4.63559774820923     -4.62141302349025
  N   1.96517097684266      4.21671475244049     -3.43737113025723
  C   1.39455768362879      4.69427277394355     -2.32201808966185
  N   0.36413597613565      5.58489340824590     -2.31661148190288
  C   -0.11916032922562      6.01873202435705     -3.48064672328835
  N   -1.12708949499684      6.89056672042021     -3.50534212435278
  N   0.43555305105160      5.55561481401556     -4.68511059761857
  C   1.92178656952084      4.22059794398800     -1.03550737913922
  C   1.41273952293127      4.64195791048953      0.24759042676653
  N   0.38629581434132      5.52692275965656      0.36175697975599
  C   -0.16434422941110      5.98449211140482      1.61368639522854
  C   2.02126369585626      4.09956880090605      1.41383772436082
  C   3.06862163600288      3.19594205751757      1.33137752874546
  C   3.56801819208181      2.78240488816521      0.08430655362635
  C   2.99289948419534      3.29577449110011     -1.06642491025206
  H   -3.00357266469108      8.48202654807530     -0.22029793087794
  H   -3.43265136603395     10.04030027181083     -0.97073565305255
  H   -4.59956128777729      8.68919177004359     -0.98561936437259
  H   -2.16701506523238      7.77889945134123     -2.26540503322962
  H   -4.89424939480746     10.14696959555146     -2.83009655718674
  H   -5.66020183925306     10.83329122070521     -5.05429579843561
  H   -4.56985434293757      9.91167950103140     -7.12050001648627
  H   -2.69475955901059      8.28648612922208     -6.86908121362523
  H   0.05111163131401      5.93307948707792     -8.01992042056456
  H   1.95450420419134      4.28823781106914     -7.98282708545866
  H   2.86085322104399      3.47519450123014     -5.78102796673188
  H   0.01094009565523      5.86441050806650     -0.52631606378444
  H   0.58292140140651      6.51036949096624      2.23801277998059
  H   -0.97984983633995      6.69032747090137      1.40066072312039
  H   -0.58272657391024      5.15819699423646      2.21940061004571
  H   1.65422148064142      4.40278940196362      2.39402989939493
  H   3.50632867395979      2.80463009969819      2.25390294136099
  H   4.39297844476217      2.07068526708619      0.02165161208560
  H   3.35566321091573      2.99653136034262     -2.04892041840842
