46
Coordinates from ORCA-job ./opt_b3lyp_cdz
  C   1.52401824527590      5.15954691825149      0.56238057295021
  S   1.89679548803511      3.91033103039754     -0.71454889376037
  C   1.29518608686283      2.39820501986627     -0.01781609644513
  C   1.45607302055439      1.24879489859972     -0.80829404608832
  C   1.01685288059022      0.00266141614059     -0.35448702215667
  N   1.15924115262632     -1.11251963944197     -1.08889594784630
  C   0.71581210066839     -2.26891219709383     -0.58156715516537
  N   0.12075302127136     -2.39357600928622      0.63894383455555
  C   -0.03643755989903     -1.30313722909064      1.38674903735911
  N   -0.61824967461609     -1.38623886652286      2.58480129501411
  C   -0.75926708628336     -0.25247992981486      3.32284631432589
  N   -0.34802243766329      0.96160294434432      2.92704821711432
  C   0.23664946722582      1.07239038079902      1.72572607680283
  C   0.68938211590873      2.30803630092056      1.24035584717491
  N   0.41091223188380     -0.05968437824172      0.91452140008983
  C   -1.39648755824568     -0.35041925890636      4.64342321105885
  C   -1.51439720199600      0.83145738692114      5.41631417579522
  C   -2.08599254989679      0.84179462223482      6.67692580634789
  C   -2.56871916225971     -0.36721083993864      7.21339255863046
  C   -2.47675380315809     -1.54361348343126      6.49132459565719
  C   -1.89825532598725     -1.57941386331195      5.19348073574553
  N   -1.85537742120053     -2.76071818846025      4.52216634407141
  C   0.88135539105211     -3.47531815615464     -1.40481907860255
  C   0.46671609069312     -4.78606974326466     -0.98729670303554
  N   -0.09182562952908     -5.03281911327540      0.22760251252636
  C   0.66737608645375     -5.86838785729647     -1.88646505073827
  C   1.25009210197088     -5.68344253095916     -3.12751440109857
  C   1.66535373251117     -4.40282538078624     -3.53960950162280
  C   1.47670590215167     -3.33214469269226     -2.68278879743591
  H   2.05486723212392      4.94231861309402      1.50052859134058
  H   1.89292821210560      6.10936857207483      0.15004823710729
  H   0.44173308079351      5.23870334821570      0.73985692440061
  H   1.92271323738226      1.27852860540673     -1.79159024473689
  H   0.53627495830149      3.16008105023009      1.89662080525355
  H   -1.12793602894862      1.74881506050245      4.97389834014203
  H   -2.15899676370917      1.77091152741993      7.24486588895117
  H   -3.02180216307184     -0.38430604750397      8.20834795951577
  H   -2.85686824755802     -2.47829740947084      6.91364233211069
  H   -2.13774269413666     -3.60819644543135      4.99315368942385
  H   -1.37656393916822     -2.77493570751191      3.62240434105397
  H   -0.28588914129178     -4.23338191947951      0.82914933359883
  H   -0.44499008708509     -5.95655305516654      0.43159870939057
  H   0.34998539457608     -6.86689357036177     -1.57215465389504
  H   1.38622004848953     -6.54400174789389     -3.78815896081648
  H   2.12627251184528     -4.25515731813838     -4.51780343855929
  H   1.78348468434999     -2.32780311649120     -2.97249769550114
