56
Coordinates from ORCA-job opt_b3lyp_cdz
  H   0.63754520355966     -3.95972253723310      2.33300723374849
  S   1.06793080314774     -5.19472357307504      1.90284822760966
  C   0.41968596004233     -4.98690144963733      0.25409140842212
  C   0.39504603536995     -6.16926894987371     -0.49818778491665
  C   -0.05211458752798     -6.22021978446303     -1.83542236726713
  C   -0.52660838770805     -5.00772754412416     -2.40454516334374
  C   -0.49072593020912     -3.84008009171130     -1.66719614372469
  C   -0.01107235514849     -3.75617536765064     -0.33657906865113
  C   0.00932540959928     -2.43356621855215      0.31160114999913
  C   0.01440450272841     -1.24914271497427     -0.43517392410114
  C   0.00003407922252     -0.00000441488911      0.20748668982183
  C   -0.01431020617562      1.24913590532470     -0.43524232859294
  C   -0.00927512433361      2.43355327285231      0.31152174949366
  N   -0.02098623643510      2.38049591268230      1.67252843152946
  C   -0.02343125841298      1.22009048666273      2.31254262357639
  N   -0.04154001349989      1.20149814734903      3.65871745527617
  C   -0.00026738216038      0.00005637435066      4.23201546148910
  N   0.04120724165048     -1.20139590143302      3.65875051963404
  C   0.02337081242185     -1.22007194200562      2.31257764908671
  N   0.02118496301449     -2.38050259169927      1.67260663348081
  N   -0.00002973946241      0.00000704753042      1.60573646101936
  C   0.01116769310070      3.75612968698040     -0.33662264196800
  C   -0.41999190871713      4.98677737448893      0.25395136163274
  S   -1.06877067898800      5.19445884853387      1.90252324192124
  H   -0.63815154328538      3.95959230389386      2.33280195988161
  C   -0.39533500599456      6.16916446197401     -0.49829144181554
  C   0.05217661550066      6.22020467760947     -1.83540461961576
  C   0.52705344324057      5.00781831832494     -2.40441471615926
  C   0.49117951363895      3.84015298003474     -1.66711230457529
  N   0.04620990816573      7.39704007564069     -2.55193208901051
  C   0.62421207341424      7.44063962647900     -3.88441092419595
  C   -0.33385582731039      8.64208882189797     -1.90520598493047
  N   -0.04615406334190     -7.39704075113966     -2.55196388500798
  C   -0.62370192775647     -7.44050638597125     -3.88463708760842
  C   0.33347842712223     -8.64216189581044     -1.90512338765374
  H   0.73099483730841     -7.07848854490153     -0.00220381508765
  H   -0.93644085106972     -4.98169103381699     -3.41254041611128
  H   -0.89377421645360     -2.94075426045909     -2.13484889469644
  H   0.06414309777181     -1.25127008131955     -1.52095036477453
  H   -0.06395467369471      1.25124337558031     -1.52103024614005
  H   -0.00043651417288      0.00004065719407      5.32871572206789
  H   -0.73151834980135      7.07833805486176     -0.00238349407716
  H   0.93715516062980      4.98185491082744     -3.41230374059264
  H   0.89448051455837      2.94081466779054     -2.13454813695133
  H   0.47911619931442      8.44324006491071     -4.30671530011261
  H   1.70963717185705      7.22180010831780     -3.88479407564002
  H   0.13416448602055      6.71893791362620     -4.56043245386732
  H   -1.35839592594309      8.58808693427098     -1.49843059273290
  H   0.34556955851194      8.91127806962096     -1.07393779032351
  H   -0.30920113676044      9.45339568052874     -2.64391045832737
  H   -1.70910844881458     -7.22156878081112     -3.88540202643550
  H   -0.13335128367863     -6.71881277680379     -4.56044645650668
  H   -0.47854982477458     -8.44309347659160     -4.30695626252841
  H   -0.34617057166061     -8.91114657083882     -1.07397405017277
  H   0.30874983253035     -9.45349617328043     -2.64379560960378
  H   1.35795416984912     -8.58840214307348     -1.49815052887008
