16
Coordinates from ORCA-job ./opt_b3lyp_cdz
  C   0.57794661494157      4.19493128005725     -8.72773259961997
  C   -0.70268809488229      3.84030945550696     -9.07016411039499
  C   -1.60689616586859      3.44227178944418     -8.04281090166059
  N   -2.86521303146934      3.08235218067224     -8.28170206982484
  N   -3.65159737312238      2.71962759999068     -7.24725886497659
  C   -3.19145621906217      2.71819618145335     -6.01691625678209
  C   -1.85184492388756      3.09121161012045     -5.67472786620725
  N   -1.38513127762065      3.09063326060085     -4.43353997123607
  N   -0.09563871419153      3.46440124518867     -4.22895587298455
  N   0.69188514885964      3.81794034840015     -5.18169419179997
  C   0.25428052779497      3.83646349185952     -6.50157091271086
  N   1.07240110881766      4.19927733215802     -7.45467015303383
  N   -1.06811780678031      3.45797073763342     -6.75078950600691
  H   1.28846198125155      4.50351800889502     -9.49991286387777
  H   -1.06863028275043      3.84681355555770    -10.09561285701301
  H   -3.86584149203014      2.41685192246153     -5.21323100187070
