65
Coordinates from ORCA-job ./opt_b3lyp_cdz
  C   -2.47432182365477     -3.20417136663687      0.60447551659633
  N   -2.51255787009039     -1.77754058211986      0.41725049436476
  C   -3.64857976761118     -1.05639069969950      0.20127759918743
  C   -4.90239127072415     -1.71036825757355      0.19105975882758
  C   -6.11398976250342     -1.02652844197228     -0.01607077106220
  N   -7.32478125738133     -1.69347533692808      0.00008568241454
  C   -7.35419665239877     -3.13968670449566      0.11451350325215
  H   -6.85001213941021     -3.64498434392494     -0.73293053050307
  H   -8.39774907944884     -3.47943284643134      0.14362112295657
  H   -6.86498845902382     -3.47908324257406      1.04424788991104
  C   -8.54641037238371     -0.99391857248899     -0.35807018738220
  H   -8.53905211417954     -0.62604885904893     -1.40283580998167
  H   -8.72292156760603     -0.12731579616934      0.30173235129115
  H   -9.39839297052735     -1.67683486001314     -0.24341606644831
  C   -6.05410432756394      0.37527937738944     -0.25140697717696
  C   -4.83127400085272      1.01896025314036     -0.23377753929907
  C   -3.59533480785740      0.37451930867098     -0.00231844025075
  C   -2.35853402719089      1.16308494924821      0.02550581816234
  N   -1.16691179828563      0.48705121375617      0.01499208811763
  C   -0.00805803044193      1.13333412425725      0.02267833233009
  N   1.13169950012633      0.42604204544956      0.00218053266942
  C   2.31995466922886      1.07940514274826      0.00583556951460
  N   2.43624673851797      2.42254254957678      0.03707716061894
  C   1.32167970533682      3.15597387226655      0.06078099083174
  N   0.04815266715434      2.54211725907819      0.04819679464010
  C   -1.14595229449642      3.27864055720902      0.07555631257809
  C   -2.35479256884469      2.56069494092768      0.06666163458503
  H   -3.27047227607256      3.14325895974778      0.12037387499431
  C   -1.05518168754091      4.68403526423106      0.11656783761921
  C   0.18895616125419      5.30488718772044      0.12695813951655
  C   1.36574106813143      4.56263001052870      0.09875274646825
  H   2.35297081538423      5.02079014942597      0.10627505070112
  H   0.24431976257066      6.39619233579604      0.15753825198367
  H   -1.98212467855637      5.25636839004557      0.13840216177100
  C   3.55377029579932      0.30053060627749     -0.02543396230776
  C   4.78625206483994      0.99301079395415      0.00538123720787
  C   6.01549322038147      0.36696813203407     -0.02163824693484
  C   6.08104903593397     -1.05517795430127     -0.08757535561026
  N   7.29817250645739     -1.70495701500585     -0.12100065445106
  C   7.35119552537998     -3.15414078184651     -0.15826757306271
  H   6.87976142354125     -3.61214283288525      0.73209826213914
  H   6.84131613855758     -3.56071206963371     -1.05107597846648
  H   8.39927507122096     -3.47841693624852     -0.19192669899333
  C   8.53618909279643     -0.94820673166125     -0.05041940378908
  H   8.62141540294601     -0.37148161596167      0.88945559991171
  H   9.38527837538769     -1.64217400536391     -0.09923014989329
  H   8.63297368422496     -0.23650483614559     -0.89007192672136
  C   4.87247189247057     -1.77676552482027     -0.11809320294319
  C   3.61020880452473     -1.14125035640874     -0.09023447867257
  N   2.47099419237157     -1.88608792729761     -0.12709147426024
  C   2.43543525667678     -3.32248605795214     -0.20974244430784
  H   2.91437252246162     -3.81115123718693      0.66151666616974
  H   1.38556348735375     -3.64816337664761     -0.24247824988365
  H   2.93565997714074     -3.70773240593872     -1.11980998348527
  H   1.60647488649252     -1.33852731432252     -0.09902879638398
  H   4.89610021657742     -2.86142727474496     -0.16459877132806
  H   6.92041356859646      0.97056826242859      0.00757317651840
  H   4.73543397471756      2.08030250956148      0.05393645742353
  H   -4.83242842541190      2.08976005483530     -0.43956145388516
  H   -6.95325119708379      0.95249728159496     -0.45602965899062
  H   -4.91399740570613     -2.78483420160199      0.34687908223319
  H   -1.64751782548719     -1.24125613951361      0.30566313948977
  H   -2.86732845168628     -3.76491554936427     -0.26750638402577
  H   -1.42955134235795     -3.51048685189546      0.75949610351514
  H   -3.05223657377561     -3.52694017717453      1.49155975668854
