74
Coordinates from ORCA-job opt_b3lyp_cdz
  H   4.09149442644044      2.79191764528530     -0.16530268586308
  N   5.01634309894104      2.35445452942652     -0.21230524600468
  C   5.00667676347938      0.99768065350234     -0.12124819063465
  C   6.23187054730721      0.28908818643681     -0.13128156730684
  C   6.31112641454214     -1.10913243655500     -0.05185972274383
  C   5.09132904067658     -1.82922757730032      0.06689289511556
  C   3.88814095635146     -1.14913914468671      0.07323169567909
  C   3.76577520326397      0.25457162997654     -0.02505291403761
  C   2.43798840092631      0.87224173073510     -0.02301820937351
  N   2.37839733147228      2.24063673955298     -0.03208389697442
  C   1.22026263947823      2.87836676246904     -0.02391876627114
  N   0.00007993782078      2.17498188014173     -0.00498386315033
  C   -0.00000578204913      0.77367723082979     -0.00274354840579
  C   -1.24776533932201      0.13084169781431      0.01226033792290
  C   -2.43797603876783      0.87264494050519      0.01720459385711
  N   -2.37822511664188      2.24106446990985      0.02199028396214
  C   -1.21999953254841      2.87859576316105      0.01181524584840
  N   -1.20247163336154      4.22776769331010      0.01562737641601
  C   0.00027475581717      4.79875070786092     -0.00902287416917
  N   1.20295153946554      4.22752221496491     -0.03194766241124
  H   0.00035356962752      5.89594790687742     -0.01085164335668
  C   -3.76580012523631      0.25505622267701      0.02105311690823
  C   -3.88819839532872     -1.14883943151016     -0.07488805031290
  C   -5.09134044177655     -1.82892052843362     -0.06665679407139
  C   -6.31118072014960     -1.10873940732801      0.05183981854285
  N   -7.54290883510856     -1.76961561669980      0.11365404305833
  C   -8.74012167879607     -1.12517019819256     -0.43557057196222
  H   -8.74487238996353     -1.20302392307016     -1.54365485457087
  H   -8.75291799759763     -0.05983692955975     -0.17631010071917
  C   -10.00620668471724     -1.76998376927484      0.12105198850924
  H   -10.08114099644617     -1.56249200052690      1.20908057009400
  H   -10.89292527621496     -1.35196974571872     -0.37889360970854
  O   -10.02774540345483     -3.16952358135733     -0.11036820050934
  C   -8.90621816929881     -3.77518227092937      0.51135379628961
  H   -8.97369040784204     -4.85423023346786      0.30683018867386
  H   -8.95006382161454     -3.61916734506442      1.60954367216282
  C   -7.58552612490689     -3.22500629243139     -0.02490388454403
  H   -6.77028501352366     -3.67290079219931      0.55959887931444
  H   -7.45786561208710     -3.53323885228033     -1.08464345703377
  C   -6.23189962308881      0.28963524232849      0.12859990552363
  C   -5.00667644611254      0.99823495137711      0.11671879888513
  N   -5.01636312569735      2.35515398857501      0.20564175591683
  H   -4.09163010693996      2.79263689964411      0.15650342571288
  C   -6.20528873539510      3.16406568683190      0.29471022149975
  H   -6.80226492162996      2.93999694182064      1.19974449869308
  H   -6.87090238116462      3.03945474978817     -0.58174792765492
  H   -5.90584674889780      4.22030027536686      0.34284768906664
  H   -7.14224297480902      0.87252808390895      0.23169283691893
  H   -5.07921297708330     -2.91012421810425     -0.18138788141220
  H   -2.98556883954344     -1.74956155092201     -0.18582418536495
  H   -1.23806027402974     -0.95530100368385      0.03017393746519
  C   1.24766416275552      0.13063916027454     -0.01567683360763
  H   1.23775329258937     -0.95555281780466     -0.02988499455215
  H   2.98546287682374     -1.74973956878183      0.18436390619715
  H   5.07928674796279     -2.91025084775036      0.18346513798531
  N   7.54314683106820     -1.76976466217760     -0.11156054541653
  C   8.73886418759143     -1.12619811060496      0.44197756399316
  H   8.75114538960480     -0.05992207437956      0.18667061609536
  H   8.74171161186237     -1.20808172433386      1.54979257068061
  C   10.00622114746552     -1.76873589277107     -0.11435316410380
  H   10.89200955219007     -1.35163865290988      0.38800960996232
  H   10.08267557203118     -1.55851221609467     -1.20174723687404
  O   10.02805893317421     -3.16883360498274      0.11378723796540
  C   8.90768335150907     -3.77392432212637     -0.51056507739860
  H   8.97557975608969     -4.85330713282924     -0.30786549337900
  H   8.95287112230837     -3.61590373218404     -1.60841064752120
  C   7.58591225837500     -3.22531558351521      0.02485978790722
  H   7.45708848286563     -3.53531382633594      1.08395391473202
  H   6.77152969682723     -3.67249650775508     -0.56140017944260
  H   7.14241343174680      0.87153698955820     -0.23549535089242
  C   6.20524286570766      3.16325158852164     -0.30253141559028
  H   6.80217860494687      2.93807338979582     -1.20733594199674
  H   5.90578558392147      4.21942452453941     -0.35193208924520
  H   6.87090269771935      3.03972552786649      0.57402533053301
