90
Coordinates from ORCA-job ./opt_b3lyp_cdz
  H   4.06106594301756      1.93200218442056      0.05493012386272
  N   4.99239663177476      1.50453110393793     -0.05590910901539
  C   4.99349870805122      0.16450398499288      0.27676711899165
  C   6.19961689367583     -0.53113668344316      0.48739789901596
  C   6.25298387222789     -1.89401186949955      0.83614017579746
  N   7.45311099410258     -2.53457320112471      1.10608265473002
  C   8.74192653639774     -1.84457808051705      1.02952519615680
  H   9.37873477716411     -2.25610171696863      1.83522868127821
  H   8.61631823201166     -0.77852987993734      1.25145209952344
  C   9.43264043355926     -2.07484366690738     -0.32313574344270
  H   8.82383729304088     -1.61797052410348     -1.12358334901889
  H   10.41223358157159     -1.56721846188420     -0.33371209377614
  C   9.59839301564311     -3.58063296179425     -0.58099818291042
  H   10.00751830798282     -3.75916880711343     -1.58926324505426
  H   10.33854916927824     -3.98837518575765      0.13413278289353
  C   8.26650138890364     -4.32515665635461     -0.40189802004130
  H   7.56673770535461     -4.04521983630868     -1.21004253133478
  H   8.41971508228838     -5.41625398356670     -0.47050193369154
  C   7.61726689504023     -3.98231325957821      0.95043889454303
  H   6.65454195453952     -4.49302564397502      1.05669607401808
  H   8.26225577020741     -4.34226577392368      1.77392760648010
  C   5.01013264216690     -2.57980428667399      0.96206062148350
  C   3.82485926256468     -1.90281349209179      0.77029897695531
  C   3.73854057939247     -0.53285772919368      0.42462728481895
  C   2.42248893149159      0.08566910609272      0.25666338698748
  N   2.36697104925577      1.45330077015266      0.23645576305173
  C   1.21596917563323      2.09290655246711      0.11537754016697
  N   1.20152446707824      3.44123652244740      0.10377584800426
  C   0.00346851682166      4.01474387586276      0.00692751155883
  N   -1.19556652964724      3.44342875557742     -0.09074317277580
  C   -1.21232149141202      2.09514269660381     -0.10427988164717
  N   -2.36441496526833      1.45768279939642     -0.22628279995417
  C   -2.42225813858364      0.09018029419751     -0.24846610449668
  C   -1.24274595832779     -0.65572204147716     -0.11993594513968
  C   0.00002287142270     -0.01413198193631      0.00404718128866
  C   1.24169225143533     -0.65802386232574      0.12712022905898
  H   1.24244241559522     -1.74423633785391      0.09124940409350
  N   0.00122090598969      1.38813657027996      0.00504217376259
  H   -1.24535308806052     -1.74198039994127     -0.08558103993094
  C   -3.73938583285073     -0.52579647309570     -0.41728549080925
  C   -3.82819285943479     -1.89512133953072     -0.76481118841749
  C   -5.01470196293298     -2.56967996417334     -0.95751862461892
  C   -6.25630116851048     -1.88177988276996     -0.83073242723322
  N   -7.45758704025234     -2.51975480494568     -1.10163670920082
  C   -8.74515481624273     -1.82755328016842     -1.02397999538302
  H   -8.61767451761512     -0.76142071975674     -1.24442649954781
  H   -9.38276917960112     -2.23681522104453     -1.83019388725831
  C   -9.43613789513505     -2.05850461827670      0.32842711860965
  H   -10.41481606445691     -1.54913473462343      0.33983330419531
  H   -8.82643480096798     -1.60386367268935      1.12946142843305
  C   -9.60458675601021     -3.56436424596368      0.58415381220280
  H   -10.34560468115127     -3.96971078578186     -0.13144187823639
  H   -10.01388539009963     -3.74360055399520      1.59222412177032
  C   -8.27408570707974     -4.31107145743080      0.40378740109500
  H   -7.57370856030663     -4.03363264277256      1.21226125766537
  H   -8.42931044273024     -5.40198397882474      0.47079639390824
  C   -7.62439005649884     -3.96742102051025     -0.94812296315998
  H   -6.66263354788529     -4.47976645337049     -1.05528857676235
  H   -8.27015740753820     -4.32493863247656     -1.77205828536160
  C   -6.20044331461118     -0.51947158689609     -0.48014616170780
  C   -4.99305431703689      0.17365648197467     -0.26852998057805
  N   -4.98944496398434      1.51323727192703      0.06592278351389
  H   -4.05732243380363      1.93911382803411     -0.04434896486762
  C   -6.02220872865353      2.35351834351771      0.48580260312404
  C   -7.13235115406957      1.94561696819841      1.25775118096693
  N   -8.09230126978973      2.77298785083172      1.68515317688849
  C   -7.98567693477358      4.07250499968953      1.37828311616629
  C   -6.91141358113497      4.59459168627089      0.65040818166505
  C   -5.92139980738368      3.72874497205963      0.19645552703547
  H   -5.06560498649773      4.09810552801014     -0.37498109694431
  H   -6.85415884759665      5.66467044658157      0.43756064047774
  H   -8.78619929104485      4.72535626918121      1.74168063478539
  H   -7.23227586321695      0.90137555601926      1.56455936397375
  H   -7.11985862478856      0.04707980253758     -0.38281562884958
  H   -4.97742336238390     -3.61321269128823     -1.26347753236657
  H   -2.90627318932193     -2.45348473153358     -0.93002752396004
  H   0.00440734967986      5.11167442541806      0.00771687766201
  H   2.90191880813370     -2.45970628609022      0.93479194925382
  H   4.97096349235087     -3.62367028735122      1.26664537825399
  H   7.12007245941247      0.03383875234514      0.39076391235110
  C   6.02676036833109      2.34344097823450     -0.47459549453029
  C   5.92856471217462      3.71844731107172     -0.18331312721662
  C   6.92022664081126      4.58304948867435     -0.63604046370127
  C   7.99349795391707      4.05994924515312     -1.36464987874313
  N   8.09764815212459      2.76066637151851     -1.67336012806955
  C   7.13612576799271      1.93452165359379     -1.24712490724932
  H   7.23405402516319      0.89053154903228     -1.55542458795702
  H   8.79526211144198      4.71178905783800     -1.72712463847945
  H   6.86500767908979      5.65293357309646     -0.42168141379599
  H   5.07347018818983      4.08862768498077      0.38864022843261
