98
Coordinates from ORCA-job ./opt_b3lyp_cdz
  H   4.07353566113920      1.66999848840909      0.11134421602986
  N   5.00104596821497      1.23291887060513      0.02190972236983
  C   4.98761118184749     -0.10257651701735      0.35570386652062
  C   6.18937303990555     -0.80622580933027      0.58202342931357
  C   6.23039717075104     -2.16611504446084      0.93607085126260
  N   7.42460953256683     -2.81343433020353      1.22995763455022
  C   7.59232106138019     -4.25590797843538      1.03773520115667
  H   6.62575969094994     -4.76661529777602      1.10264625575682
  H   8.21485892502682     -4.64160315012851      1.86709751437984
  C   8.27602513538993     -4.56344052215605     -0.30631232578240
  H   8.43154655216944     -5.65238502850474     -0.40024849115654
  H   7.59719996413840     -4.26164919538312     -1.12441381106555
  C   9.61178915134463     -3.81502132736793     -0.43200559111538
  H   10.04798855360202     -3.96917413677951     -1.43309315540719
  H   10.33311732327829     -4.23957761134654      0.29258104672171
  C   9.43740195592450     -2.31603435834626     -0.14158810130931
  H   10.41685454321958     -1.80803559397639     -0.11498121674938
  H   8.84723213123963     -1.84132700862181     -0.94575287911449
  C   8.71203240987961     -2.11984805467201      1.19863530536672
  H   9.33224374978217     -2.54782715222011      2.00902940264040
  H   8.57587943644181     -1.05949005745067      1.44187322140343
  C   4.98453462639638     -2.84843811715694      1.04816564207514
  C   3.80468860006728     -2.16738218972948      0.83740548290878
  C   3.72844935297345     -0.79806889381886      0.48666002905350
  C   2.41678159137568     -0.17750754835305      0.29503987137922
  C   1.23756291940286     -0.92054373955394      0.14564754841798
  C   -0.00132198787256     -0.27626359206470     -0.00019748646852
  C   -1.24217046635121     -0.91710075054715     -0.14450034361275
  C   -2.41907939374595     -0.17081993708542     -0.29593523573183
  N   -2.36148572328504      1.19661989564355     -0.27471883678392
  C   -1.21085433842433      1.83311580293598     -0.13369779884272
  N   -1.19282389141168      3.18147108451858     -0.12251593208299
  C   0.00484452839248      3.75166267097790     -0.00509263814960
  N   1.20076639076269      3.17809277300450      0.11367980369670
  C   1.21467726436504      1.82972037045801      0.12808472760024
  N   2.36336950727050      1.19004716500983      0.27056326391183
  N   0.00082986343732      1.12587831058016     -0.00193026680166
  H   0.00652053899695      4.84868972494384     -0.00638914002528
  C   -3.73263466358628     -0.78775060430746     -0.48630547318022
  C   -4.98958212304458     -0.08780691595884     -0.35791824701056
  N   -4.99874264065799      1.24861909661569     -0.02774350403274
  C   -6.05651490850190      2.08353784985020      0.36099872600317
  C   -7.14323743451842      1.67002672038094      1.15319899251697
  C   -8.12635301708726      2.58529040248628      1.54025188615870
  C   -8.06465419761546      3.93715451995974      1.17697517777833
  C   -6.95969305386870      4.34735589325260      0.41142726406169
  C   -5.97946425252021      3.44606563257071      0.00524530869740
  H   -5.13060564024750      3.78954065084130     -0.59171802869836
  H   -6.86626996836023      5.39782277674773      0.11990527827977
  C   -9.13859886531582      4.91819402991472      1.58327989333280
  H   -9.75914265343735      5.21942412507645      0.72022911042553
  H   -8.70553485553869      5.84103104345059      2.00427045491136
  H   -9.81294956369319      4.48746381095104      2.33953803623075
  H   -8.95723176602386      2.23424420989002      2.15963141023090
  H   -7.20392762127456      0.63878204460823      1.50209042413296
  H   -4.06975940347558      1.68237841729873     -0.11800352324561
  C   -6.19351670579626     -0.78812758043019     -0.58305501746048
  C   -6.23879002543526     -2.14885349744404     -0.93337889945974
  N   -7.43492918024741     -2.79304279942575     -1.22631908556945
  C   -7.60753965445507     -4.23441314296855     -1.03016179639232
  H   -6.64267743916541     -4.74855049462821     -1.09328751992669
  H   -8.23103675478931     -4.62030365734487     -1.85870941795301
  C   -8.29284090172586     -4.53590338082773      0.31443658746961
  H   -7.61339402636479     -4.23402208380351      1.13198794728392
  H   -8.45198707685516     -5.62405911146004      0.41138797156161
  C   -9.62619696070149     -3.78274816903919      0.43737091042685
  H   -10.06336303187299     -3.93261787311995      1.43868729634622
  H   -10.34858053271713     -4.20700936553706     -0.28633594327456
  C   -9.44677004480569     -2.28516512483518      0.14278214878259
  H   -10.42454697444683     -1.77405348120153      0.11422814907537
  H   -8.85546689866650     -1.81011375102441      0.94590803556513
  C   -8.72007185394087     -2.09512527388460     -1.19760911185789
  H   -9.34126462111208     -2.52331081846551     -2.00713972737703
  H   -8.58027183944031     -1.03590955938944     -1.44374572676942
  C   -4.99510635118511     -2.83556817957409     -1.04277867123571
  C   -3.81315811316442     -2.15778057238784     -0.83326116689491
  H   -2.88722812249561     -2.71316475499613     -0.98600796544341
  H   -4.95270258482410     -3.87794302664428     -1.35281493871502
  H   -7.11522587640598     -0.22278954034114     -0.49778988911830
  H   -1.24604958213512     -2.00327744276052     -0.10701088160278
  H   1.23812273785295     -2.00681695378699      0.11081632122404
  H   2.87702295044094     -2.71929345903929      0.99222223127167
  H   4.93891418873001     -3.88979503474267      1.36115900898859
  H   7.11288495420628     -0.24416220242369      0.49459119596587
  C   6.06126534098216      2.06310355274596     -0.37030711384659
  C   7.14604049934683      1.64372201496806     -1.16177420049714
  C   8.13216277183312      2.55470885219431     -1.55192702098134
  C   8.07503848163178      3.90766580525406     -1.19277096434862
  C   6.97224271615311      4.32365665992841     -0.42690024846417
  C   5.98931069515328      3.42692976928540     -0.01777640397030
  H   5.14258193494514      3.77460494459284      0.57977616970394
  H   6.88313503269143      5.37505619698956     -0.13729509931997
  C   9.14811972855997      4.88612048075784     -1.60756426473572
  H   9.86423444278126      4.42652463515244     -2.30607796860164
  H   9.72134810581304      5.25149314871776     -0.73697575502290
  H   8.71759287134948      5.77310677390747     -2.10263747592851
  H   8.96193608296763      2.19903389650439     -2.17011973512454
  H   7.20360524115291      0.61112118180922     -1.50714818337942
