94
Coordinates from ORCA-job ./opt_b3lyp_cdz
  H   -4.07893114130343     -1.73027610451649      0.10583683402099
  N   -5.00598918597356     -1.29048039029393      0.02954875289508
  C   -4.99097858406920      0.04757887745855      0.34305799597229
  C   -6.19682254345935      0.75310449163750      0.54852227428199
  C   -6.24291001452068      2.11855023162539      0.87520940127934
  N   -7.44010055768253      2.77007051245180      1.14913774243816
  C   -8.72401972414114      2.06973262032330      1.13632624667444
  H   -9.34754008986774      2.51829329099550      1.93307304697287
  H   -8.58171421525685      1.01774644017041      1.41081775351385
  C   -9.44939121870696      2.22170684666032     -0.20962091749665
  H   -8.85707654961145      1.72472478850722     -0.99847324690822
  H   -10.42682454529322      1.71089084000933     -0.16785689742569
  C   -9.62936215494449      3.71033962644557     -0.54619290489546
  H   -10.35266042846355      4.15460863744891      0.16451691075542
  H   -10.06555737848710      3.83175307038336     -1.55180191538987
  C   -8.29639313822563      4.46708251707488     -0.44326475120452
  H   -8.45549517447536      5.55195972828440     -0.57207723531253
  H   -7.61579138243988      4.14150682476539     -1.25071215595869
  C   -7.61261235705867      4.20495654956207      0.91043629609605
  H   -6.64732546318836      4.72004906579148      0.95858427311053
  H   -8.23691679758239      4.61565517493562      1.72644269748555
  C   -4.99918890137865      2.80690196478949      0.98226584236488
  C   -3.81677588271101      2.12608135234931      0.78832886870606
  C   -3.73432137657785      0.75017030335859      0.46301892767302
  C   -2.42170834038301      0.13047082394470      0.28255399580692
  C   -1.24128114302688      0.87370989811589      0.14119173995119
  C   -0.00097308832023      0.23073972065463      0.00431668332464
  C   1.24002032219575      0.87259557375012     -0.13159855404636
  C   2.41965520580294      0.12831793144598     -0.27407064732036
  N   2.36320742980631     -1.23996369913428     -0.25199902482508
  C   1.21203953293712     -1.87702404616154     -0.11937762819522
  N   1.19500496450511     -3.22576504335025     -0.10766910919116
  C   -0.00310402207892     -3.79644100257998      0.00135640342161
  N   -1.20060876172455     -3.22465624337305      0.11121722133682
  C   -1.21621250831799     -1.87591723485754      0.12489722582543
  N   -2.36670502088814     -1.23783276028663      0.25845246332990
  N   -0.00171419693663     -1.17152852896892      0.00327635195282
  H   -0.00368488236845     -4.89360774491014      0.00055886890477
  C   3.73291652220047      0.74692278803958     -0.45361473273610
  C   4.98886254592087      0.04291247988393     -0.33450979308995
  N   5.00253424479361     -1.29558191379950     -0.02280008652942
  C   6.09765572699626     -2.12175172094454      0.29791853755690
  C   6.14071051716678     -3.41945137961473     -0.23966351939823
  C   7.16067745931272     -4.30823419488983      0.10465625251512
  C   8.17598718000066     -3.91241069326193      0.98384326421156
  C   8.14120576781544     -2.62318711811421      1.53170214091193
  C   7.10934766165118     -1.74566352854294      1.20311688079085
  H   7.07374628817098     -0.76206904562854      1.67404483521402
  H   8.92354265122175     -2.33007530208206      2.23475962993537
  O   9.21151995274468     -4.73105292643250      1.34721236811734
  H   9.09665599747387     -5.58613071373952      0.90711073339377
  H   7.16901287527563     -5.31557591944667     -0.32421366718413
  H   5.35774469928334     -3.73340958267262     -0.93384718277819
  H   4.07506748940447     -1.73438458877712     -0.09982209751962
  C   6.19542543604793      0.74751623456555     -0.53891571756123
  C   6.24289852567120      2.11335747680503     -0.86374807503800
  N   7.44075571919196      2.76405410542121     -1.13671733944059
  C   7.61472354861029      4.19841772901951     -0.89594973210992
  H   8.23943978393621      4.60966354788877     -1.71136598469337
  H   6.64995699521364      4.71455763419000     -0.94333943412538
  C   8.29878696304208      4.45788923055899      0.45812042601958
  H   7.61787196748015      4.13181542908895      1.26510249568991
  H   8.45897573963481      5.54241778253037      0.58851213184999
  C   9.63099991424376      3.69966643426363      0.55991719970468
  H   10.35472590304664      4.14424778988286     -0.15016149709253
  H   10.06733873165532      3.81918684991991      1.56569083925936
  C   9.44953558592791      2.21170144278467      0.22119681693192
  H   8.85676558675047      1.71416800384114      1.00935949423136
  H   10.42645906752565      1.69997574001171      0.17864970894401
  C   8.72395733484272      2.06238597376145     -1.12493744494408
  H   9.34790825256697      2.51143452851614     -1.92107362720780
  H   8.58055278683425      1.01093797345802     -1.40091824124540
  C   4.99987728113136      2.80309656321272     -0.96995891219647
  C   3.81676922929064      2.12319385501889     -0.77703622121970
  H   2.89224452932693      2.68238192551070     -0.92401094957284
  H   4.96073540076070      3.85005243785424     -1.26483983909907
  H   7.11669296606921      0.18079822637462     -0.45011435631105
  H   1.24147921696325      1.95877391750276     -0.09572868350770
  H   -1.24156738037024      1.95994086210256      0.10695359983884
  H   -2.89168863266770      2.68415517539475      0.93598829530548
  H   -4.95897426015286      3.85342065477726      1.27854928084345
  H   -7.11865546509445      0.18741525795525      0.45905198565577
  C   -6.10196362257994     -2.11518649578963     -0.29202987516878
  C   -7.11345420492643     -1.73697797111361     -1.19656748050200
  C   -8.14622118377721     -2.61308724292544     -1.52607328815685
  C   -8.18214951614683     -3.90296854969868     -0.97983873009482
  C   -7.16705851890861     -4.30088535474107     -0.10134313793889
  C   -6.14617138735177     -3.41352508831461      0.24391416428983
  H   -5.36338304304919     -3.72911782668237      0.93755609122724
  H   -7.17628625274087     -5.30876101648011      0.32625248644113
  O   -9.21853938123884     -4.72014940095977     -1.34404744078468
  H   -9.10441966108406     -5.57589180764618     -0.90504491936638
  H   -8.92840231929512     -2.31832565941023     -2.22861381852442
  H   -7.07698401667817     -0.75282640410890     -1.66626242236469
