92
Coordinates from ORCA-job ./opt_b3lyp_cdz
  H   -4.06743594807697      1.73090747744285     -0.12323185711237
  N   -4.99758699332941      1.29752120390661     -0.03713564545446
  C   -4.98859720305947     -0.04052707163370     -0.36386186945218
  C   -6.19259787802827     -0.74002293732327     -0.58804037330051
  C   -6.23873663449806     -2.10272263730413     -0.93292310730755
  N   -7.43408815531502     -2.74672980789882     -1.22417938106768
  C   -7.60771817195656     -4.18879151487264     -1.03313069539998
  H   -6.64216511344667     -4.70241089641656     -1.08844533731672
  H   -8.22354886184357     -4.57311398565574     -1.86805171937798
  C   -8.30486896148089     -4.49290317953286      0.30473121791094
  H   -7.63252656754162     -4.19323404102140      1.12895377443014
  H   -8.46486896245769     -5.58122533355897      0.39764596723670
  C   -9.63920873279070     -3.74004082630263      0.41787702121834
  H   -10.08493002373844     -3.89208790765680      1.41502044022148
  H   -10.35540438289436     -4.16256212343598     -0.31285453902419
  C   -9.45742193447009     -2.24184028901602      0.12807709834700
  H   -10.43488268492179     -1.73071291850243      0.09233031587281
  H   -8.87280940698996     -1.76852838074484      0.93720420040803
  C   -8.71964052880976     -2.04901825483943     -1.20573553691261
  H   -8.57836375344544     -0.98943755322187     -1.44922357024601
  H   -9.33370702542529     -2.47595444460869     -2.02126957213778
  C   -4.99485153277283     -2.79019175900072     -1.03698938304079
  C   -3.81285170381373     -2.11241612248063     -0.82837613219532
  C   -3.73191444964969     -0.74091225421450     -0.48705408427385
  C   -2.41900688098058     -0.12248305946554     -0.29755771612374
  C   -1.24079194337725     -0.86695993139578     -0.14788549930610
  C   -0.00087588283324     -0.22418031260833     -0.00433937733689
  C   1.23915180614286     -0.86650892902420      0.14025847441769
  C   2.41723025854319     -0.12157860373071      0.28873704016731
  N   2.36144124863286      1.24595678672839      0.26468681215734
  C   1.21150284438941      1.88394702822661      0.12358377154962
  N   1.19565427857438      3.23212054104938      0.10958519724468
  C   -0.00121763557509      3.80416275281288     -0.00769928961676
  N   -1.19799298680012      3.23171942109457     -0.12401757124859
  C   -1.21361162823208      1.88352222146395     -0.13574773673130
  N   -2.36344397639712      1.24510113315342     -0.27577053032397
  N   -0.00099440472938      1.17800881299096     -0.00549365910386
  H   -0.00131014539453      4.90112855061499     -0.00863184944726
  C   3.73026209332052     -0.73943568472905      0.47920069131002
  C   4.98675176443723     -0.03893530333130      0.35484945205439
  N   4.99534507152446      1.29860927981045      0.02604739012794
  C   6.05997292372878      2.12909820467428     -0.35480449800504
  C   6.01377038310626      3.48078800324908      0.04346414436931
  C   6.99949746242584      4.38334539886816     -0.35438203636823
  C   8.05148594286256      3.93187547336592     -1.14623419182515
  C   8.12226345774544      2.60759899157462     -1.56579957966365
  C   7.12286689931832      1.71110922799442     -1.17991205702705
  H   7.15402861007067      0.68635442923231     -1.55047942681260
  H   8.94696277508440      2.29090138510282     -2.20704474927597
  F   9.02067732563048      4.79998595558783     -1.52230052354725
  H   6.96498410495998      5.43058784824832     -0.04893587055804
  H   5.18576996376404      3.82084038841961      0.66980440269368
  H   4.06509470501959      1.73188068007028      0.11160917392635
  C   6.19093275147890     -0.73778686781672      0.58002841752493
  C   6.23740012761745     -2.09992812232145      0.92704383932465
  N   7.43294084030521     -2.74327918202351      1.21891237157448
  C   7.60671804060756     -4.18554295549463      1.02964161504288
  H   8.22317681930799     -4.56869796638114      1.86463369968555
  H   6.64129786268560     -4.69927094345673      1.08623849523030
  C   8.30296478710061     -4.49113075059702     -0.30833262390571
  H   7.62997138257903     -4.19246043844597     -1.13239787339412
  H   8.46301874594094     -5.57954256496529     -0.40011024987072
  C   9.63714292173708     -3.73824890049120     -0.42327765338205
  H   10.35387393409014     -4.15981746727950      0.30747946560727
  H   10.08221320119133     -3.89143305939577     -1.42053751618177
  C   9.45538293689947     -2.23972280075109     -0.13513989666090
  H   10.43280878497545     -1.72844584598873     -0.10059873022676
  H   8.87022615772033     -1.76743637516474     -0.94447231892749
  C   8.71836688279387     -2.04538322366907      1.19887865085827
  H   8.57706728410006     -0.98552415749094      1.44114630148295
  H   9.33296847351752     -2.47122603764301      2.01457867966858
  C   4.99368906476089     -2.78751631341702      1.03236498916179
  C   3.81151788178348     -2.11035579783220      0.82275843757995
  H   2.88601459513169     -2.66727491930423      0.97220881249861
  H   4.95141728181297     -3.83080546057266      1.33911394357985
  H   7.11271492293639     -0.17165378809588      0.49768487124800
  H   1.24133763600009     -1.95276756337371      0.10590587856831
  H   -1.24277692100107     -1.95316244840755     -0.11178038946757
  H   -2.88721166575189     -2.66936727515595     -0.97686290098291
  H   -4.95230567196217     -3.83394991507548     -1.34210078857378
  H   -7.11451274234900     -0.17395971466067     -0.50669864599562
  C   -6.06248903829534      2.12830013890345      0.34231278804155
  C   -6.01657556259762      3.47940803843591     -0.05796045677757
  C   -7.00260595979320      4.38229810635381      0.33837791738040
  C   -8.05461040181837      3.93173014365234      1.13072229391602
  C   -8.12511223545616      2.60805978843460      1.55224231304846
  C   -7.12541480782107      1.71125901070438      1.16785940126456
  H   -7.15638065904104      0.68704553944610      1.53993931711747
  H   -8.94984250741133      2.29209558935890      2.19380930898889
  F   -9.02409815396363      4.80014069349388      1.50533177349398
  H   -6.96831549969513      5.42909403808731      0.03137999653961
  H   -5.18855726071580      3.81874637374491     -0.68466428120068
