98
Coordinates from ORCA-job opt_b3lyp_cdz
  H   -4.04823361063087      0.91644089742366     -0.98227657091319
  N   -4.96275573065551      0.58671238883655     -0.63972866219945
  C   -5.00227029114484     -0.78912040239307     -0.50590517516496
  C   -6.22722246116303     -1.46916457996747     -0.37188685057620
  C   -6.32224302472266     -2.86946439394932     -0.24781294490021
  N   -7.54553083401121     -3.51810589529875     -0.19013367292000
  C   -7.70767234625384     -4.83043487941336      0.44102357707472
  H   -8.41861273349368     -5.41750917761623     -0.16999272412911
  H   -6.76025857220999     -5.37965115808584      0.43943117736835
  C   -8.24920318643006     -4.69245625827153      1.87494703486660
  H   -8.40813228387801     -5.69660589616968      2.30519328543856
  H   -7.48371133981585     -4.19256338106405      2.49551277843836
  C   -9.55543379739049     -3.88370130007839      1.89977723846945
  H   -10.35684629177285     -4.47594329444250      1.41824367072357
  H   -9.87908476596532     -3.70772070832191      2.93910588275981
  C   -9.40037281818388     -2.55125962763759      1.14928633071475
  H   -10.37335405073140     -2.03767357307282      1.06402648940348
  H   -8.72563745121269     -1.87817928489810      1.70798837011397
  C   -8.81884523040057     -2.79911606176294     -0.25116322503552
  H   -9.52113513722762     -3.43046478068454     -0.82720188710549
  H   -8.70476198439244     -1.86914736142053     -0.82032360228778
  C   -5.10123657134620     -3.60277172112149     -0.24921551487378
  C   -3.89829755498957     -2.94499881172828     -0.39660663874983
  C   -3.77206084293307     -1.54191119176753     -0.52848810794192
  C   -2.44154836227427     -0.95045621033039     -0.68826720081766
  C   -1.26001922331918     -1.65144172235211     -0.41270658802919
  C   -0.00758342107993     -1.05417347030947     -0.62958172023699
  C   1.23685299674549     -1.66312250880766     -0.40123519991361
  C   2.42768971095963     -0.97331529491062     -0.66566952111083
  N   2.37787623178204      0.31745354326727     -1.11567113578424
  C   1.22353201920288      0.92984145753768     -1.32139454904802
  N   1.21506923332291      2.20787002602864     -1.74930806234140
  C   0.01634502973404      2.75840091920250     -1.93459390182243
  N   -1.18886191720039      2.21916355341248     -1.75979007708080
  C   -1.21343474376555      0.94138269013067     -1.33235821876100
  N   -2.37543930029527      0.33982514355852     -1.13744550373909
  N   0.00084919712492      0.26525897040429     -1.10359460479549
  H   0.02294199665992      3.79949667063435     -2.27923107144326
  C   3.75124395848029     -1.57594839810535     -0.49375261387666
  C   4.98704894099597     -0.83294793236484     -0.46288393955936
  N   4.95828731052245      0.54319692990496     -0.59513291270911
  C   5.90449031620250      1.51601299148395     -0.28470454364256
  C   6.92410980740065      1.36707883632210      0.68102199498894
  C   7.79897616200013      2.41664872404876      0.95200627415596
  C   7.68248333362355      3.64027278754803      0.28204600227297
  C   6.65267399694879      3.81012144459615     -0.65270061384814
  C   5.77942102657298      2.76550287564602     -0.93371466909791
  H   4.97546388313055      2.90574512992733     -1.66052098775656
  H   6.53613588248685      4.76594958149338     -1.16528171089439
  C   8.66778011284953      4.73753012284346      0.55555842179315
  F   8.20422224075213      5.95218328028023      0.18006279999452
  F   9.84155156946530      4.55134155533911     -0.10432484046763
  F   8.98793282812845      4.81841954361353      1.87153302202097
  H   8.57269438027548      2.28828193626083      1.71147517920376
  H   7.00589967235117      0.44489246711928      1.25455876237481
  H   4.04682451549225      0.87990688496828     -0.93907865628856
  C   6.20560825288507     -1.52318752518957     -0.32172791378825
  C   6.28849662062488     -2.92413399889185     -0.19700425244200
  N   7.50614924037052     -3.58269432350027     -0.13133384008643
  C   7.65403905558787     -4.89440690219703      0.50456297979221
  H   6.70169586088653     -5.43504955083754      0.50077761016716
  H   8.36228793339322     -5.48978944263534     -0.10153804238130
  C   8.19056424617834     -4.75679790158335      1.94041361564415
  H   8.33914881953459     -5.76099888961527      2.37420596041278
  H   7.42661318183695     -4.24872581687710      2.55623404903596
  C   9.50349703172316     -3.95912414074884      1.96875936170520
  H   10.30201175866315     -4.55951201235537      1.49251057270617
  H   9.82398795600137     -3.78299354644765      3.00904383093520
  C   9.36307497592011     -2.62754495003601      1.21395296604200
  H   10.34076288063668     -2.12250430237660      1.13156884240290
  H   8.69170460477718     -1.94721330697114      1.76799211341890
  C   8.78563148774061     -2.87439718459364     -0.18836594059316
  H   9.48527316482761     -3.51311611348897     -0.75951047462683
  H   8.68157924536056     -1.94514529795578     -0.76060392750724
  C   5.06176791279699     -3.64772014232042     -0.20574142761889
  C   3.86529404094036     -2.98014347293299     -0.36096337960579
  H   2.96110251934830     -3.58651627031744     -0.42285516620347
  H   5.04832495421902     -4.73464752396518     -0.15432859620347
  H   7.11454520116145     -0.93214800692772     -0.34252556203334
  H   1.22915396441790     -2.67310799640733      0.00035264047199
  H   -1.26595881084761     -2.66136274818806     -0.01085211700578
  H   -2.99858143684218     -3.55870541444990     -0.45198421218790
  H   -5.09655762585017     -4.68975748049097     -0.19767104023406
  H   -7.13108495496778     -0.87053862204618     -0.39829346218025
  C   -5.90236151009279      1.56666163721227     -0.33186410290101
  C   -5.76730538828221      2.81446557527393     -0.98213266646969
  C   -6.63339277996802      3.86571368741890     -0.70367325145392
  C   -7.66593939954768      3.70436155963149      0.22967818547274
  C   -7.79234193861087      2.48232021324627      0.90071534836435
  C   -6.92466943782522      1.42609496465036      0.63222322832648
  H   -7.01470224487609      0.50502791973085      1.20639370674357
  H   -8.56813679048412      2.36049227440552      1.65911817830361
  C   -8.64386426445943      4.80917715818349      0.49909938180547
  F   -9.81216819492463      4.63798175554660     -0.17440240836766
  F   -8.16494261875052      6.02150633546523      0.13530219983510
  F   -8.97721295647868      4.88580880291663      1.81199313610901
  H   -6.50886208814878      4.82010311997704     -1.21708371802317
  H   -4.96111915018371      2.94834389919388     -1.70766382908020
