66
Coordinates from ORCA-job ./opt_b3lyp_cdz
  H   4.08369808990530     -2.40082768610179     -0.14994130165129
  N   5.01149077182148     -1.96793453499253     -0.19252062203176
  C   5.00680098904235     -0.61016354978879     -0.13445257620430
  C   6.23487710727307      0.09404893829611     -0.15162684253261
  C   6.29440348849569      1.49191835895835     -0.09384815308870
  N   7.50060741795685      2.14532659643991     -0.13833843246668
  C   8.83385473708933      1.61157993210689      0.15924715501940
  H   9.31845296980451      1.09119228871885     -0.68471312013530
  H   8.85111484996854      0.94284947421928      1.04145594989191
  C   9.30650423133566      3.06349772408968      0.44666375355637
  H   9.95462703229816      3.48040152812572     -0.33623373523080
  H   9.77051519635487      3.22595975282579      1.42828712868093
  C   7.82024457696089      3.50104790601643      0.32597336986978
  H   7.59916755228406      4.29963348801684     -0.40269304490668
  H   7.34269150480456      3.76088774868025      1.28990610089390
  C   5.08555327210585      2.23173043851429     -0.00703056110502
  C   3.88434781514026      1.55301286544657      0.00871744967597
  C   3.76689142287070      0.14228668171264     -0.05437570310363
  C   2.43966019987286     -0.47341240225181     -0.03983639675723
  N   2.37776467632742     -1.84314418017651     -0.04518843877393
  C   1.22028715629926     -2.48034185644733     -0.02747355289945
  N   1.20284314056539     -3.83019231026048     -0.03222263801784
  C   -0.00003592256506     -4.40056832897493     -0.00352246692920
  N   -1.20287196161147     -3.83012870268804      0.02585721184245
  C   -1.22020423584328     -2.48027542714526      0.02268722178462
  N   -2.37763247914253     -1.84300146853307      0.04112900041344
  C   -2.43941665117723     -0.47326248361083      0.03740211316774
  C   -1.24732632237870      0.26689450798305      0.02082416537525
  C   0.00012516591119     -0.37598333048416     -0.00112850995796
  C   1.24763083804095      0.26681803226071     -0.02229024212991
  H   1.23563992902687      1.35297642824464     -0.03136685582549
  N   0.00006841582503     -1.77762428898258     -0.00198555185109
  H   -1.23524834629922      1.35303948530746      0.03131913780044
  C   -3.76659031857777      0.14255221698942      0.05262726016906
  C   -5.00658173951715     -0.60983758164477      0.13204849930510
  N   -5.01142987492460     -1.96766506721216      0.18877131320808
  H   -4.08370442782879     -2.40063475154960      0.14549912167278
  C   -6.19922178504257     -2.77889623065645      0.26996838482047
  H   -6.86739472525925     -2.64178679816196     -0.60259958292091
  H   -6.79421386506264     -2.56689453468168      1.17920251102679
  H   -5.89887842736348     -3.83555885576759      0.30208889789702
  C   -6.23457570697227      0.09449910156935      0.15003715703980
  C   -6.29394607458701      1.49243096453125      0.09363331700570
  N   -7.50007062484699      2.14593976466831      0.13887706967445
  C   -7.81958172675326      3.50212928751877     -0.32416192082547
  H   -7.34204308141313      3.76280623007026     -1.28787483922584
  H   -7.59838101349461      4.30001199009588      0.40523617124201
  C   -9.30589644526395      3.06486023530597     -0.44518337006950
  H   -9.76992856088710      3.22827743048333     -1.42663841830319
  H   -9.95394098144895      3.48111850105156      0.33812224177217
  C   -8.83339878476398      1.61262444013039     -0.15913157546883
  H   -9.31801020707416      1.09151624436841      0.68437620590481
  H   -8.85078558815964      0.94470926883479     -1.04195491259148
  C   -5.08502092684546      2.23218659149103      0.00739977767080
  C   -3.88389340958046      1.55334976030296     -0.00911903444377
  H   -2.97677798218877      2.15270929976386     -0.08291243818717
  H   -5.10402300039634      3.32154501909358     -0.03991506675555
  H   -7.16408394555066     -0.46842479594518      0.21661310675657
  H   -0.00007999347046     -5.49791324729136     -0.00412700770960
  H   2.97729462803249      2.15241429420170      0.08292233234237
  H   5.10467145645957      3.32104212254700      0.04130062914654
  H   7.16432865385822     -0.46891097760004     -0.21867993346956
  C   6.19918746894754     -2.77922650362376     -0.27450585777145
  H   6.86734093393098     -2.64306530960643      0.59822269962655
  H   6.79423883022470     -2.56638641243511     -1.18350711538541
  H   5.89871942275677     -3.83582061136727     -0.30769078282764
