88
Coordinates from ORCA-job ./opt_b3lyp_cdz
  H   4.08481060837179      3.36185066623573      0.18048359688802
  N   5.00806034246987      2.92272602866902      0.23743206430232
  C   4.99777246479220      1.56869596631984      0.15403103622723
  C   6.22820532603994      0.85612738013869      0.19550772955557
  C   6.27956615927241     -0.52889394758854      0.10491757007476
  N   7.53308243882653     -1.19454586442591      0.12913979773403
  C   8.62635099575548     -0.92815801016994     -0.70918680614696
  C   9.68650413972984     -1.81464246353030     -0.37984734425047
  C   9.21435629092048     -2.65046981315630      0.70736030012953
  C   7.88398288911017     -2.24261773304742      0.99268649873507
  C   7.14596353223423     -2.83026040882937      2.02837476430767
  C   7.75250494687896     -3.85223039286416      2.76066000565308
  C   9.06420814745523     -4.27914696884982      2.47948892682340
  C   9.80046160759186     -3.67946555930738      1.45866776529817
  H   10.82302289445371     -4.00229732317920      1.24864484226373
  H   9.50856099466891     -5.08245635131076      3.07120953960398
  H   7.19498695185926     -4.32640102542789      3.57198235229074
  H   6.13357115670512     -2.49899770589711      2.26185912696263
  C   10.88929138624555     -1.75530292169575     -1.09874471498307
  C   11.01810106043932     -0.82872074595959     -2.13233980768127
  C   9.95196542307697      0.03090356816583     -2.45812501331792
  C   8.74523623402483     -0.00638783470043     -1.75739368738142
  H   7.92176730550365      0.65617254957788     -2.02550826624726
  H   10.06674663463393      0.74279252324866     -3.27909385759625
  H   11.94999166038228     -0.77148748816998     -2.69906776622183
  H   11.71192748679900     -2.43153896264859     -0.85396784807364
  C   5.08949638233802     -1.27357305530931     -0.02168167812825
  C   3.88237487382147     -0.59720947224087     -0.04358899814327
  C   3.76837681937577      0.80978980030133      0.04548081519786
  C   2.43404720613946      1.42853304771799      0.02593452725125
  N   2.37616785929561      2.79379827035452      0.02254935974096
  C   1.21680409301640      3.43251307506617     -0.00063905885283
  N   -0.00147293532810      2.72659816059296     -0.02418135437179
  C   -1.22062737407917      3.43060809167515     -0.05674502369098
  N   -2.37918088802990      2.79017533528236     -0.07175712967575
  C   -2.43543834973632      1.42492156030266     -0.05716782205130
  C   -1.24789843232465      0.68199646269290     -0.03573511670028
  C   -0.00062348048794      1.32703262440876     -0.01490240395194
  C   1.24747652098112      0.68388604750342      0.01456292702629
  H   1.23798906852807     -0.40190321916341      0.03803485269834
  H   -1.23697686832498     -0.40399405950259     -0.04410951732142
  C   -3.76903362843268      0.80434854473714     -0.06893267299279
  C   -4.99970281606670      1.56053159436242     -0.18260122597402
  N   -5.01217451390994      2.91366052144050     -0.27937676746003
  H   -4.08943099371307      3.35465893057685     -0.22901698356945
  C   -6.20462528895734      3.71810126262693     -0.40424942758427
  H   -5.90694386078844      4.77457240004562     -0.45075379904443
  H   -6.88923533451886      3.59472791595525      0.45596168369735
  H   -6.77548518448428      3.48484748254740     -1.32244491309784
  C   -6.22927826954791      0.84597671573207     -0.21425050852906
  C   -6.27865019834856     -0.53815373393543     -0.11011221842514
  N   -7.53140365550708     -1.20550397522676     -0.12470391042081
  C   -7.88303038715124     -2.26284754488645     -0.97655392104467
  C   -9.21184863791680     -2.67006304019340     -0.68317149943208
  C   -9.68221069359924     -1.82414270054488      0.39698340016363
  C   -8.62262898682910     -0.93258105259810      0.71421352712869
  C   -8.74001269762518     -0.00046448776991      1.75339642871420
  C   -9.94471893735778      0.04181665286810      2.45732548492323
  C   -11.01030526828491     -0.82289544803754      2.14342754989198
  C   -10.88295579451148     -1.75962417123937      1.11883493851011
  H   -11.70512338008985     -2.43970983162345      0.88332988678108
  H   -11.94060070696856     -0.76155826820443      2.71234238305929
  H   -10.05830867169282      0.76176727693136      3.27140101043400
  H   -7.91692773474747      0.66622026430348      2.01230287375224
  C   -9.79842673804918     -3.70753084947811     -1.42236468380478
  C   -9.06416896277253     -4.31621059875905     -2.43928983699623
  C   -7.75403873943054     -3.88994708490482     -2.72864287236687
  C   -7.14707988543424     -2.85964052197684     -2.00848903259376
  H   -6.13595411547895     -2.52905087354006     -2.24834053748581
  H   -7.19811014988211     -4.37131505884422     -3.53681374926462
  H   -9.50889943567092     -5.12616629498997     -3.02159270141946
  H   -10.81981323641051     -4.02995022202963     -1.20608341294465
  C   -5.08729993989854     -1.28004632503740      0.02067235688211
  C   -3.88105488906515     -0.60191216215376      0.03353489433290
  H   -2.97592780091865     -1.19606175872350      0.15372894107972
  H   -5.12223265460211     -2.36269591674362      0.13814364150951
  H   -7.16146624995275      1.39304234465406     -0.33966902260112
  N   -1.20461355539060      4.77794686886941     -0.07121066104249
  C   -0.00313486203435      5.35201516596201     -0.04099108001936
  N   1.19906693510450      4.77990994024715     -0.00345142729814
  H   -0.00383449840793      6.44878360782536     -0.04799249969911
  H   2.97826841766301     -1.19353793525535     -0.16075341021374
  H   5.12617650376644     -2.35721086670128     -0.12909319844626
  H   7.15939222602163      1.40562316997121      0.31774315219873
  C   6.19893490554655      3.73008392833800      0.35795337021933
  H   6.76776982854990      3.50620745530545      1.27973229176993
  H   6.88584207718371      3.59974618301711     -0.49933975820922
  H   5.89956037149142      4.78649090619076      0.39384738465257
