100
Coordinates from ORCA-job ./opt_b3lyp_cdz
  H   4.03797783251346     -1.16398222800384     -0.10074035045347
  N   4.99738044789034     -0.78472064187036     -0.08958842144892
  C   6.00363839121887     -1.71579694850721      0.09449365747236
  N   7.29976052806339     -1.36027906873817      0.09295757601948
  C   8.21536239796262     -2.32508976267879      0.28123016231080
  C   7.91529636951082     -3.66856175641357      0.47710580979040
  C   6.55910014725910     -4.03500123656566      0.47926094262697
  C   5.59282911902212     -3.06228209860966      0.28873209280657
  H   4.52810400114781     -3.30812346181003      0.28943605498133
  H   6.26298098676760     -5.07610043001066      0.63144497292922
  H   8.70886741946439     -4.40297784876911      0.62410933115152
  H   9.25838601645242     -1.98882135511731      0.27289245200291
  C   5.00613738148929      0.58576616270828     -0.29680446684441
  C   6.21063190977043      1.30318902558442     -0.39698661239612
  C   6.25293426812689      2.69215953903406     -0.62204907508859
  N   7.45809992063832      3.36172014622861     -0.77804408157208
  C   8.74331215928713      2.66401676764881     -0.71111858967806
  H   9.41676853115569      3.15305258987655     -1.44041188967011
  H   8.62471420026116      1.62538237812320     -1.04011903758972
  C   9.36803795694336      2.75476268356795      0.68939234135947
  H   10.35035714904096      2.25153311502968      0.69303943420807
  H   8.72465937178314      2.21435596535181      1.40591957954187
  C   9.51293398628713      4.22569477649022      1.11045200228062
  H   10.28356465555452      4.70712531558754      0.47787970572830
  H   9.87283836729945      4.29883831886159      2.15037463520175
  C   8.18677156561270      4.98406556566549      0.94718375670335
  H   8.33007379166154      6.06206909355824      1.13776672498266
  H   7.45114084451381      4.61918878295366      1.68660236708387
  C   7.60472595287839      4.78434294500004     -0.46350594330190
  H   8.28547832292004      5.23179508452820     -1.21207853393882
  H   6.64360286756974      5.30059156584451     -0.56053669618687
  C   5.01018007431975      3.37591889767963     -0.73793812341602
  C   3.82636141785108      2.67907948320461     -0.61925875324170
  C   3.74351171342262      1.28496173629562     -0.38519691447445
  C   2.42449785344235      0.66243248211829     -0.24134467624232
  N   2.36421559677461     -0.70584951402780     -0.22152497625553
  C   1.21134472168148     -1.34619470285627     -0.10730157116313
  N   0.00008373629598     -0.63893656461384      0.00036250556432
  C   -1.21052479085714     -1.34739106790797      0.10754704608364
  N   -2.36399353724660     -0.70819646491767      0.22216771635798
  C   -2.42551481276081      0.66001947334083      0.24279370229041
  C   -1.24295012021278      1.40413115551490      0.11983794813950
  C   -0.00055993639233      0.76217730618100      0.00075234000832
  C   1.24121346755406      1.40535972276803     -0.11800841880261
  H   1.23752118152128      2.49108672160760     -0.08445510910361
  H   -1.24034760800660      2.48987760933449      0.08674477453057
  C   -3.74511151432490      1.28125502277800      0.38694994559582
  C   -5.00706759896518      0.58106576732864      0.29719656160812
  N   -4.99697385827351     -0.78918725337261      0.08845456240563
  C   -6.00228343314475     -1.72088720503781     -0.09762645962759
  N   -7.29871080747415     -1.36647772681376     -0.09662099429287
  C   -8.21334382361521     -2.33181970432193     -0.28686321100032
  C   -7.91198105885434     -3.67478164296625     -0.48425602922298
  C   -6.55547319545385     -4.04006032513604     -0.48583907278047
  C   -5.59017801629927     -3.06676666272349     -0.29330225211259
  H   -4.52524465874574     -3.31170548156828     -0.29353063469960
  H   -6.25834573429132     -5.08070619263731     -0.63915503281081
  H   -8.70481259831233     -4.40968053110474     -0.63282802648132
  H   -9.25666040475538     -1.99645013989242     -0.27889161290205
  H   -4.03726082836952     -1.16763652071432      0.09990757999893
  C   -6.21223043855050      1.29733665208298      0.39759863838936
  C   -6.25582813149308      2.68601466401589      0.62420774817826
  N   -7.46165650785673      3.35440376259807      0.78034623203552
  C   -8.74622316369231      2.65570522984996      0.71112779219458
  H   -9.42098660880028      3.14352154743072      1.44001854173774
  H   -8.62720260476482      1.61686545637224      1.03933556092378
  C   -9.36923852390121      2.74722336529133     -0.69009904516876
  H   -10.35115645447511      2.24322522426863     -0.69545140223633
  H   -8.72453234901437      2.20795680311853     -1.40629056231882
  C   -9.51476360186905      4.21841486641947     -1.11004651304058
  H   -9.87333271373881      4.29217959435889     -2.15038687621843
  H   -10.28663778092303      4.69865995025394     -0.47808864307708
  C   -8.18944459218444      4.97773675600043     -0.94432373047024
  H   -7.45250706973571      4.61411450752922     -1.68305967926938
  H   -8.33338186255488      6.05578962656625     -1.13414908178301
  C   -7.60917567606111      4.77720539176925      0.46697496755113
  H   -6.64869785428967      5.29429532317662      0.56592844120186
  H   -8.29141346622544      5.22322952764966      1.21503640583033
  C   -5.01372274267746      3.37069735077990      0.74154821622422
  C   -3.82924209391196      2.67501591968054      0.62262957576102
  H   -2.90766906064007      3.24209144349272      0.75274224077167
  H   -4.97340545448567      4.43486118885048      0.96734545665552
  H   -7.11838112929203      0.71664125275107      0.27480417858528
  N   -1.19276618048195     -2.69013385567343      0.09473205710786
  C   0.00132081159910     -3.29237936581042     -0.00046739675560
  N   1.19484688162620     -2.68896123639731     -0.09532127330714
  C   0.00200718004749     -4.77933321299871     -0.00092500457944
  C   1.19077291674325     -5.49027194328156     -0.24355621060467
  C   1.18886181838918     -6.88549412567832     -0.24675634913511
  C   0.00329582879984     -7.58776457903875     -0.00178193017737
  C   -1.18291311318617     -6.88673193871994      0.24362625015879
  C   -1.18610563539700     -5.49151045388701      0.24127876704502
  H   -2.10065874771091     -4.93078168709844      0.43330633631099
  H   -2.10988208219516     -7.43170405467442      0.43806917677462
  H   0.00379741377104     -8.68076093583222     -0.00211676176136
  H   2.11633127682202     -7.42949731430423     -0.44152563204184
  H   2.10481531964829     -4.92858823530328     -0.43522370132197
  H   2.90426596905138      3.24556739895178     -0.74819835630276
  H   4.96883325311073      4.44031395565656     -0.96245775356226
  H   7.11734374803279      0.72312985880234     -0.27530502067772
