99
Coordinates from ORCA-job ./opt_b3lyp_cdz
  H   -4.04108984924514     -1.17879746664087     -0.10088281470106
  N   -4.99962627774088     -0.79928777176412     -0.09372008165205
  C   -5.00833489352200      0.57131748389598     -0.29750609435940
  C   -6.21306638541593      1.28773080073654     -0.39866918386146
  C   -6.25675163916867      2.67752767023041     -0.61892429808731
  N   -7.46150431417161      3.34544804842657     -0.77485747129948
  C   -7.61185311198646      4.76871175318191     -0.46494927162516
  H   -8.28375736324949      5.21501630203259     -1.22214145881018
  H   -6.64959577230411      5.28468220450999     -0.55096895493846
  C   -8.21024039145219      4.97023197389886      0.93862534276636
  H   -8.35638971792460      6.04848765332645      1.12529447687435
  H   -7.48277173225073      4.60731186852237      1.68702602738558
  C   -9.53755799136974      4.21123412999643      1.08848363230009
  H   -10.30148701715675      4.69073112067916      0.44647057696169
  H   -9.90892016324538      4.28610938815651      2.12420163533774
  C   -9.38672576808946      2.73963507732624      0.67204719790904
  H   -10.36848246234839      2.23545059261769      0.66584500166505
  H   -8.75059741736795      2.20127261400704      1.39657212916666
  C   -8.74690074138344      2.64668205045738     -0.72136616992854
  H   -8.62383041431085      1.60766107260678     -1.04721101778527
  H   -9.41258699226828      3.13404672315914     -1.45886389405567
  C   -5.01407115916349      3.36366445399554     -0.72875855536475
  C   -3.83020190145016      2.66810629528609     -0.61000886458803
  C   -3.74568734356638      1.27255944230871     -0.38107090886990
  C   -2.42698651402778      0.65286836539753     -0.23797910933380
  N   -2.36403278229751     -0.71702202576651     -0.21586199376302
  C   -1.21192692820768     -1.35412326270265     -0.10313057965834
  N   -1.19328349910386     -2.69982254790417     -0.09018313346315
  C   0.00143894341409     -3.29445651403453      0.00518200310083
  N   1.19556323826062     -2.69839372600611      0.09899065895631
  C   1.21289013778910     -1.35264467093625      0.10842413470050
  N   2.36436546036048     -0.71412781826862      0.21951218939053
  C   2.42593328753412      0.65585952750429      0.23803923560745
  C   1.24142522777794      1.39692366441172      0.11574341712943
  C   -0.00056907150490      0.75359337637873     -0.00013271753307
  C   -1.24317548424994      1.39540380441690     -0.11770265147008
  H   -1.23939127806822      2.48119649108075     -0.08664953807621
  N   0.00013020344166     -0.64798924265851      0.00172652364774
  H   1.23662630360849      2.48262834515117      0.08178273126902
  C   3.74400860701145      1.27719039955274      0.37957930607756
  C   5.00735234897541      0.57701452848573      0.29763156259620
  N   5.00001231019857     -0.79410352190009      0.09712638478807
  C   6.00799745447773     -1.72618452802804     -0.07777439434992
  N   7.30358921105464     -1.36986374010754     -0.07180187761949
  C   8.22065459800126     -2.33511116562725     -0.25083851100096
  C   7.92194884807709     -3.67968147138631     -0.44135548070385
  C   6.56614747971967     -4.04689655381150     -0.44819273814281
  C   5.59858188600613     -3.07342790454139     -0.26720162791013
  H   4.53399988101456     -3.31985684789347     -0.27169347859843
  H   6.27138467270179     -5.08890047685149     -0.59646609642091
  H   8.71645431023296     -4.41450617321262     -0.58081817667259
  H   9.26340186308330     -1.99827969266864     -0.23920061222489
  H   4.04188886728727     -1.17461211258314      0.10546529319473
  C   6.21138785270217      1.29488453008314      0.39696097043520
  C   6.25367504610149      2.68525021229732      0.61391542121413
  N   7.45776109177172      3.35476584712393      0.76814596451505
  C   7.60666690078218      4.77742688278158      0.45477958572740
  H   6.64387278023250      5.29260773622921      0.53950566255754
  H   8.27809484537137      5.22626536483481      1.21089700809307
  C   8.20488572072925      4.97615082186241     -0.94926862919597
  H   8.35000143035792      6.05409448266971     -1.13852883913010
  H   7.47777537706429      4.61074267537062     -1.69680779401261
  C   9.53294609287805      4.21809135215122     -1.09729190649958
  H   9.90421849699496      4.29081824259083     -2.13319545717395
  H   10.29640713341610      4.69990531876436     -0.45645812203042
  C   9.38359420274666      2.74736070499018     -0.67727302283511
  H   8.74801678707829      2.20657039279177     -1.40047069018019
  H   10.36586656654258      2.24419698045119     -0.66983928269196
  C   8.74385900694046      2.65717060959116      0.71636436912516
  H   8.62183938883176      1.61882753279145      1.04475507867523
  H   9.40904324352531      3.14702769288692      1.45266229903100
  C   5.01031271101844      3.37037907752466      0.72223692394877
  C   3.82712788069805      2.67334831416835      0.60524445876382
  H   2.90513259565264      3.24116950176884      0.72861014217656
  H   4.96875102567924      4.43609789782446      0.94008932732187
  H   7.11828713602193      0.71404561171527      0.28056433089729
  C   0.00218628146591     -4.78561759506452      0.00712535994423
  C   -1.17174966715971     -5.51160885399826     -0.23944736717387
  C   -1.11306501647900     -6.90659733538126     -0.22856680326613
  N   0.00361935990623     -7.61024367569814      0.01081223996368
  C   1.11958890508078     -6.90484314048768      0.24835313883079
  C   1.17685720408349     -5.50977179835371      0.25559398715827
  H   2.10823372714447     -4.98102940713760      0.45604171311760
  H   2.02406435484603     -7.49094582655548      0.44488949285524
  H   -2.01694517813212     -7.49412955225442     -0.42356813262131
  H   -2.10366346801598     -4.98433804685197     -0.44126767030659
  H   -2.90877790679362      3.23658094447344     -0.73459287692940
  H   -4.97356229850925      4.42891275337357     -0.94908984583643
  H   -7.11936994229175      0.70622387299468     -0.28099872725235
  C   -6.00672417657601     -1.73200953086213      0.08291111633834
  N   -7.30268145753800     -1.37704055818953      0.07562837103074
  C   -8.21881690154651     -2.34282970040624      0.25648871844368
  C   -7.91879577875760     -3.68665510905195      0.45016866031633
  C   -6.56262034267334     -4.05245098329924      0.45837771949024
  C   -5.59599095766942     -3.07839169692937      0.27556072325349
  H   -4.53115593078594     -3.32370134837409      0.28102800650107
  H   -6.26684228058558     -5.09381116413654      0.60913116195222
  H   -8.71259792884880     -4.42198269540255      0.59098007685935
  H   -9.26191057441715     -2.00711563581301      0.24368701434325
