99
Coordinates from ORCA-job ./opt_b3lyp_cdz
  H   4.03007560138818      1.16195189225157      0.10636563930909
  N   4.98978248906601      0.78522698999628      0.13203037518066
  C   4.99405957927235     -0.59165796122289      0.28116608535794
  C   6.19752272430424     -1.31027397031878      0.38694150409838
  C   6.23906547129701     -2.70747932681022      0.55035235214002
  N   7.44083031746436     -3.37916712824963      0.71306788127693
  C   8.72420011321327     -2.67537932842289      0.74031700712624
  H   9.36341124277022     -3.19394484423801      1.48008845322741
  H   8.58368090117753     -1.65254907199993      1.10769764785433
  C   9.41765000393844     -2.70319481200362     -0.63003249720003
  H   8.80819327223711     -2.13325620618279     -1.35331481938343
  H   10.39659425749522     -2.19800185344911     -0.56261836542531
  C   9.58974729129863     -4.15391700986625     -1.10695539275531
  H   10.32989031820108     -4.66097675883481     -0.45824884308547
  H   10.00122056439930     -4.18090162475402     -2.12980525776902
  C   8.26041979848251     -4.92140717705449     -1.04352874303627
  H   8.41772562537790     -5.98967558500153     -1.27365430175623
  H   7.56101420975479     -4.52601425057072     -1.80216970401168
  C   7.60739835704460     -4.78608386202009      0.34361663606164
  H   8.25081796715720     -5.26683769178176      1.10458845530243
  H   6.64381394096091     -5.30623981100194      0.36741440853291
  C   4.99589730999698     -3.40022055114458      0.59313808250320
  C   3.81393615294910     -2.70182280708267      0.47402382872073
  C   3.73039689431383     -1.29734067950928      0.30549891768921
  C   2.41342851780888     -0.67277341966343      0.16659349580949
  N   2.35631334727927      0.69659081152245      0.14059107905841
  C   1.20761357438901      1.34095478103797      0.02765080020676
  N   1.19840352443031      2.68537336313895      0.00519604544408
  C   0.00725294675853      3.28963275085706     -0.08977220393414
  N   -1.19198227502122      2.69773082844440     -0.16963418324620
  C   -1.21758726798917      1.35309830948048     -0.17060981584238
  N   -0.00855385720115      0.64103168411138     -0.06970551752163
  C   -0.01486675707535     -0.76027764426636     -0.05940339619102
  C   1.22357252013945     -1.40888542866932      0.05550018047098
  H   1.20999918389463     -2.49472096465735      0.03811444714755
  C   -1.26214590783011     -1.39715233811993     -0.16184292327000
  C   -2.44220647378316     -0.64958131185185     -0.27861612420960
  N   -2.37418206939321      0.71996457048376     -0.26884520807004
  C   -3.76552201296687     -1.26589393730068     -0.40474034469376
  C   -5.02410564797760     -0.56157811522512     -0.30131854749176
  N   -5.00731150026582      0.80974226048169     -0.09839573131971
  C   -6.00744958008840      1.74470238942452      0.09887410723344
  N   -7.30467244141712      1.39387497578842      0.11668258071713
  C   -8.21410669930989      2.36208634382525      0.31674253450411
  C   -7.90667876116952      3.70486175217908      0.50613710709706
  C   -6.54940379102807      4.06650702602999      0.48812253002914
  C   -5.58940187940420      3.09004192030790      0.28512060237113
  H   -4.52384669859129      3.33179289870616      0.27028871244176
  H   -6.24780164860666      5.10686152371257      0.63465856689847
  H   -8.69545733224461      4.44222618594638      0.66357447858634
  H   -9.25823694654255      2.02934107716771      0.32405538535006
  H   -4.04744184850202      1.18584645518517     -0.12559056711852
  C   -6.23250601185730     -1.27444059082098     -0.38224862968093
  C   -6.28352275741752     -2.66412328702476     -0.60207518215446
  N   -7.49305128973260     -3.32939286120013     -0.73751001232865
  C   -7.63998637872383     -4.75155035105435     -0.42062600461919
  H   -8.33269829621529     -5.19678326977806     -1.15942632666083
  H   -6.68208193268880     -5.27105446737161     -0.53092351789674
  C   -8.20269119988543     -4.94873505957260      0.99822679295853
  H   -7.45536150125595     -4.58635375209226      1.72706170054265
  H   -8.34709661595254     -6.02617748873603      1.19098295427226
  C   -9.52371146504991     -4.18568303392332      1.18016652433047
  H   -9.86882531924269     -4.25717540393505      2.22518270144537
  H   -10.30504823959432     -4.66458303042428      0.55895099279133
  C   -9.37977205776224     -2.71544020425786      0.75643380088381
  H   -10.36018069845231     -2.20882306362770      0.77391297904999
  H   -8.72429388053277     -2.17689894530752      1.46335608359627
  C   -8.77502139219792     -2.62745134007617     -0.65294316244207
  H   -9.46028202804191     -3.11494309503772     -1.37215746153067
  H   -8.65796987073835     -1.58947268078124     -0.98444546903806
  C   -5.04500482897992     -3.35289930427114     -0.73427925459364
  C   -3.85712696810297     -2.66039291752179     -0.63423001613985
  H   -2.93907683484746     -3.23058741960895     -0.77530913777837
  H   -5.01093712616249     -4.41795153376407     -0.95674223976104
  H   -7.13518658460224     -0.69059244359906     -0.24952340175273
  H   -1.26433860547957     -2.48261434968317     -0.11973099550274
  C   0.01365628510468      4.77523743837230     -0.11137781974086
  C   1.20271877434997      5.49909346087526      0.09254249449373
  N   1.27847622557220      6.83519477240088      0.08414572649902
  C   0.13998721483470      7.50964967854644     -0.13644290729855
  C   -1.09856808515113      6.89580030816643     -0.35053608277598
  C   -1.16377220723940      5.50443362616406     -0.33628181564269
  H   -2.09860192222973      4.96811391252344     -0.50097764764641
  H   -1.99066269609663      7.50087701680346     -0.52636279415600
  H   0.22357165928597      8.60227607151737     -0.14277541972675
  H   2.13104713235108      4.95349688668563      0.27539822742788
  H   2.89259771102857     -3.27938393229801      0.54273512259695
  H   4.95240051461291     -4.47484749899969      0.76136837023377
  H   7.10513791083281     -0.72278754783752      0.31873328050478
  C   6.00044065707071      1.72774891861174      0.04693129333064
  C   5.59216319054736      3.08135346863875     -0.09069088776446
  C   6.56085579231536      4.06631495013085     -0.18054777612526
  C   7.91706467851511      3.70312966644715     -0.13511198178941
  C   8.21491708645930      2.35166848115686     -0.00064200394968
  N   7.29636359703387      1.37532394542769      0.08966420181921
  H   9.25807175221365      2.01806599234612      0.03827713783240
  H   8.71285644740032      4.44668899811818     -0.20274121879535
  H   6.26588704229060      5.11337149968121     -0.28609050278596
  H   4.52757809045770      3.32493992488227     -0.12505979365258
