99
Coordinates from ORCA-job ./opt_b3lyp_cdz
  H   -4.04718920003865     -1.14767094536326     -0.17852801669476
  N   -5.00745226696595     -0.77619559806541     -0.11572359028519
  C   -5.99791813097058     -1.71754503607410      0.09544733176260
  N   -7.29566786784057     -1.37228667099075      0.15367474748171
  C   -8.19577515742343     -2.34676500441181      0.36478818313855
  C   -7.87877190117295     -3.69092830662178      0.52657429040058
  C   -6.52110873705103     -4.04683807658053      0.46651289248297
  C   -5.57041619172318     -3.06401100099803      0.25136844363523
  H   -4.50479275270108     -3.30139969558870      0.20503697557833
  H   -6.21187697390361     -5.08794171960062      0.59034835924740
  H   -8.66040474866317     -4.43347363611935      0.69500577325847
  H   -9.24051486414322     -2.01822952691875      0.40539522486031
  C   -5.03475867134048      0.59872547950041     -0.29542289442386
  C   -6.24734406925989      1.30808683865987     -0.33649780718501
  C   -6.30785357362602      2.70089315854637     -0.53304398833794
  N   -7.52292906559660      3.36455217874806     -0.62958268118333
  C   -7.66526253414505      4.77957164536881     -0.28030939987900
  H   -6.71294029513798      5.30507864464324     -0.40928346881399
  H   -8.38143505738683      5.23613791001139     -0.98922003300316
  C   -8.18602726066833      4.94722720075877      1.15824476527371
  H   -8.32812958759391      6.02017019408339      1.37631987876224
  H   -7.41621380939386      4.57361000852751      1.85741583921111
  C   -9.49869673082795      4.17585685879094      1.36421894733539
  H   -10.29955423173658      4.66416514381590      0.77598988433277
  H   -9.81288976597544      4.22551416153146      2.42022466093761
  C   -9.36304850187958      2.71474991191482      0.90735599545159
  H   -10.34111335361612      2.20453665858283      0.94363527457509
  H   -8.68555513068060      2.16464190932572      1.58394327892725
  C   -8.79966248154158      2.65667504885123     -0.52065258317291
  H   -8.68960011880548      1.62574995681624     -0.87583752002078
  H   -9.50739006242208      3.15574626972409     -1.20953914230184
  C   -5.07550634379430      3.39568207319574     -0.68481949367327
  C   -3.88287713605714      2.70599916008193     -0.62242444743343
  C   -3.78195278564906      1.30917868565699     -0.41534042502500
  C   -2.45318230113226      0.69531164640541     -0.32510509080974
  N   -2.37981540403975     -0.67334782226995     -0.35985073507082
  C   -1.21680752574411     -1.30147233657401     -0.29696220503553
  N   -1.17862619140010     -2.64506189205313     -0.33294726985643
  C   0.02809760693160     -3.22887783569146     -0.27886007581875
  N   1.21169359710168     -2.62309721802342     -0.18066930590608
  C   1.20591407408447     -1.28042186459636     -0.12919650698920
  N   2.35121724611373     -0.63212928377437     -0.01815524897947
  C   2.40922488559998      0.73356688144945      0.04368615564210
  C   1.21355081320780      1.46882639937794     -0.01603647136472
  C   -0.02332571172247      0.81742817760435     -0.13772321798539
  C   -1.27759418518533      1.44783404601873     -0.19899692658033
  H   -1.28895564763391      2.53113639464412     -0.11844376195685
  N   -0.01236664023905     -0.58303218227910     -0.19519355055111
  H   1.19188239088808      2.55385116764770      0.03056917526223
  C   3.73365195471087      1.34328606855747      0.17115493254096
  C   3.84636665305147      2.75449542356446      0.21826314525682
  C   5.03915529707012      3.43370204001475      0.34169475911341
  C   6.26315871063547      2.71174442509331      0.43672671998120
  N   7.47174579859892      3.36778169570105      0.61797932886086
  C   7.69565546768990      4.73728266295746      0.15099690969275
  H   6.74913736413989      5.28567873790573      0.09730257318749
  H   8.32337554618400      5.25505031297138      0.90056610212554
  C   8.40716109497639      4.74894794296932     -1.21366897848324
  H   7.72738815957614      4.31486350810520     -1.96898183848094
  H   8.60495298020835      5.79181309056801     -1.51747739426222
  C   9.71507842353036      3.94437602446330     -1.16204457743825
  H   10.16711846630868      3.87978141126772     -2.16594308551599
  H   10.44359483829310      4.48191991650700     -0.52472511352318
  C   9.48298187277070      2.54058436321566     -0.58104603224388
  H   10.44387800947452      2.01820049392368     -0.43290455878504
  H   8.88776613976271      1.93034507272696     -1.28296472852736
  C   8.73335382243386      2.63795159024200      0.75632329682773
  H   8.55069266818865      1.65109580413147      1.19641074519985
  H   9.35489509480356      3.19877420660646      1.47997793164403
  C   6.19406941698145      1.30736763504476      0.38238463769502
  C   4.97990451991387      0.60874802034756      0.26089141314192
  N   4.94842678401614     -0.77353234982456      0.21091588038539
  H   3.98329163055427     -1.12630272120959      0.10754812662896
  C   5.92822124701860     -1.74832821067407      0.28790998836307
  N   7.22725358536211     -1.42981976508203      0.41774964957916
  C   8.11487928919481     -2.43627845979189      0.48496964427345
  C   7.78078767876181     -3.78463111241515      0.42838427010925
  C   6.42087201190183     -4.11050469198974      0.29192136981944
  C   5.48126864106974     -3.09624891005283      0.22045783784874
  H   4.41509626339315     -3.31642834396625      0.11562080900799
  H   6.09930946280262     -5.15392806748826      0.24245693853049
  H   8.55242899517727     -4.55405005670848      0.48834323491816
  H   9.16222876677563     -2.13126063829651      0.59070789491673
  H   7.08738672443784      0.69517244393390      0.41622367588387
  H   5.01650429274961      4.52045361769153      0.39869744684261
  H   2.94054681496954      3.35743383648989      0.16122473357169
  C   0.03524835368469     -4.72716990581111     -0.34333623425180
  N   1.21548943683862     -5.34526187505740     -0.16030478067538
  C   1.23066703109120     -6.67906429278509     -0.21865461874411
  C   0.09697522150067     -7.46404793428028     -0.46261747566045
  C   -1.12382938004079     -6.81571991356174     -0.65530337942953
  C   -1.15927064961432     -5.42286287574314     -0.59284703568359
  H   -2.08064162141962     -4.86055024177954     -0.73729912335700
  H   -2.03543593866414     -7.38525653103666     -0.85228336256661
  H   0.17650701034618     -8.55280994766589     -0.50058647074748
  H   2.20539215814544     -7.15460303651822     -0.06201933308853
  H   -2.96970463338289      3.28040926689390     -0.77802215350016
  H   -5.05034705385898      4.46380920843210     -0.89357638889131
  H   -7.14476518370921      0.71887622873058     -0.19228527200897
