97
Coordinates from ORCA-job ./opt_b3lyp_cdz
  H   -4.00665207679417     -1.11884128153777      0.19573867220713
  N   -4.97570495383111     -0.76677720532302      0.23804035469246
  C   -5.95723612140740     -1.74256352918639      0.27008068656783
  N   -7.26167605029804     -1.42518158355287      0.32710580231307
  C   -8.15082548738743     -2.43208981111851      0.35416105736673
  C   -7.81319732852620     -3.78051331559559      0.32666418969675
  C   -6.44775059424776     -4.10557915886077      0.26641541290261
  C   -5.50677959050928     -3.09039079902103      0.23745616344469
  H   -4.43640385347063     -3.30940745166108      0.19086006152781
  H   -6.12342939045458     -5.14906045335246      0.24241452296930
  H   -8.58622167946189     -4.55041098893580      0.35098837510272
  H   -9.20251706013451     -2.12740538690112      0.40060971751407
  C   -5.01297887575987      0.61636273406712      0.27052890907596
  C   -6.23353792525143      1.31123556653717      0.33189983054467
  C   -6.31014367587665      2.71587916632763      0.37016138534630
  N   -7.52713227139179      3.36869948443864      0.49006923305720
  C   -7.73489881989904      4.73413547464613      0.00391081527958
  H   -6.78674139426170      5.28164795675115     -0.02286579938115
  H   -8.38800778601122      5.25889839556544      0.72645923789832
  C   -8.39802144152080      4.73309795264975     -1.38500007845117
  H   -7.69138761909495      4.29388136234749     -2.11216844849234
  H   -8.58609430123610      5.77318594221418     -1.70395550915336
  C   -9.70579125426822      3.92694031356303     -1.37360601946757
  H   -10.12163119296178      3.85402762838211     -2.39243826966649
  H   -10.45733870191659      4.46790869890632     -0.76672489564129
  C   -9.49203979343949      2.52810110342389     -0.77418443947370
  H   -8.87026270046226      1.91412412958817     -1.44932089040265
  H   -10.45645468472130      2.00446257025198     -0.65682635983383
  C   -8.79162486672904      2.63734488057244      0.58854644589008
  H   -9.43998828849687      3.20239567441262      1.28491081037792
  H   -8.62309205231146      1.65437832566046      1.04260537387398
  C   -5.08527501591528      3.44152477161383      0.32624931669472
  C   -3.88640321554372      2.76595882282082      0.25801046517179
  C   -3.76655881967505      1.35451060925941      0.22300203677175
  C   -2.43571462574258      0.75148142957474      0.14348146762168
  N   -2.36497065313878     -0.61809142208889      0.14102982302118
  C   -1.21252028459133     -1.25486083687882      0.07165439674507
  N   0.00014326358660     -0.54937230130189     -0.00019101561823
  C   1.21227469254099     -1.25594743123806     -0.07035797054114
  N   2.36520433309071     -0.62021598817723     -0.14126574216013
  C   2.43697096557305      0.74929362993419     -0.14703111315617
  C   1.24870610481743      1.49334832202986     -0.07443850904417
  C   0.00066902431299      0.85286987201419     -0.00190759520269
  C   -1.24689193102178      1.49445951380224      0.06903925191567
  H   -1.23807320713391      2.58056435041432      0.05947461379709
  H   1.24069192933543      2.57948039856787     -0.06763892275237
  C   3.76827904455337      1.35107930093243     -0.22798302288329
  C   5.01403873158444      0.61176308401364     -0.27428318840144
  N   4.97550378626420     -0.77127664571979     -0.23889790551052
  C   5.95612412047557     -1.74803683284204     -0.26918749015154
  N   7.26083741376903     -1.43198640341005     -0.32736450857412
  C   8.14904487243521     -2.43977678307891     -0.35257159043996
  C   7.81017915462507     -3.78782308853817     -0.32205616121408
  C   6.44445497415861     -4.11149373345767     -0.26061118520183
  C   5.50443572908815     -3.09537359808895     -0.23349109582483
  H   4.43387614888644     -3.31329278196644     -0.18602317009969
  H   6.11917800839019     -5.15462024595490     -0.23424523681545
  H   8.58248188453097     -4.55848671470733     -0.34500564583469
  H   9.20100236363262     -2.13617126367042     -0.40004776198581
  H   4.00614122714319     -1.12234556882484     -0.19550110621295
  C   6.23518399254421      1.30544918463081     -0.33744395822192
  C   6.31298402877358      2.70994425061169     -0.37860892743616
  N   7.53049473961217      3.36146290239946     -0.50023149543744
  C   7.73969633691537      4.72765253947658     -0.01682046036143
  H   8.39268483295326      5.25055445971067     -0.74082973612239
  H   6.79197959248384      5.27594057637258      0.00963604703067
  C   8.40383094227832      4.72873152599376      1.37161331232594
  H   7.69735104388822      4.29150950223774      2.10013242825320
  H   8.59300579160907      5.76927213476033      1.68843123825091
  C   9.71091689307866      3.92145878997006      1.36084546141109
  H   10.46248207385789      4.46061124996263      0.75237360316699
  H   10.12742337709204      3.85018121628049      2.37952136538129
  C   9.49555987997265      2.52163524680499      0.76430693727334
  H   8.87373957571026      1.90950195884929      1.44107487563563
  H   10.45944843930407      1.99695266675971      0.64729117740656
  C   8.79428359766849      2.62882982789197     -0.59814309389226
  H   9.44265698480084      3.19196859847879     -1.29604834482912
  H   8.62457557614069      1.64512625888148     -1.05017096866383
  C   5.08876041896057      3.43673454014841     -0.33581323477652
  C   3.88932285407200      2.76234907830195     -0.26588819543658
  H   2.98451463421204      3.36922350816974     -0.25286049107273
  H   5.07322651140393      4.52354862454024     -0.39407534665468
  H   7.12658369406199      0.68958881677595     -0.33589631024631
  N   1.19614231855218     -2.60340944862939     -0.06524460518032
  C   -0.00085103397845     -3.18541203103594      0.00298511485548
  N   -1.19740466928503     -2.60234075018350      0.06978680404097
  C   -0.00142976521017     -4.69611346678026      0.00476162205929
  N   1.18843914666554     -5.31711801496502     -0.00171529019767
  C   1.11658474260543     -6.65015970314097      0.00144535832451
  N   -0.00246284796292     -7.38536474410866      0.00799843904880
  C   -1.12094532961373     -6.64928680844422      0.01279189599174
  N   -1.19177590567006     -5.31618671570158      0.01273965955944
  H   -2.07197569447432     -7.19415685593382      0.01726895133534
  H   2.06719648859044     -7.19576899345146     -0.00174737679114
  H   -2.98106412658932      3.37202184220374      0.24403117878309
  H   -5.06881000195611      4.52844018361487      0.38229487120238
  H   -7.12546008916846      0.69612541554672      0.33136983719012
