17
Coordinates from ORCA-job opt_b3lyp_cdz
  C   1.26305580964692     -9.42329154367905     -3.76839796810525
  C   -0.01042371217534     -9.89359846929413     -3.50788763129633
  C   -0.94792974242100     -9.01280980800007     -2.92646807307948
  N   -2.20566319274359     -9.38348272532693     -2.63948250112185
  N   -3.03864568889891     -8.49547021991016     -2.08941137573477
  N   -2.69529776406264     -7.27616326170812     -1.81260000006309
  C   -1.41857286526154     -6.82923792217895     -2.08152045118347
  N   -1.10210058019191     -5.58598120194023     -1.78850732801812
  C   0.16316920025117     -5.18661497388451     -2.06886973166235
  C   1.13102749986864     -5.98449206676461     -2.63377572099099
  C   0.81409816276469     -7.33033069929298     -2.95920427130189
  N   1.68786979677804     -8.17057995157957     -3.50728706142727
  N   -0.50359506576670     -7.71975799813951     -2.65879278429445
  H   2.00899968286668    -10.08605616333182     -4.21895628460373
  H   -0.33009390313393    -10.91038146432853     -3.72792904944276
  H   0.39027726967554     -4.14725688163080     -1.81184376484036
  H   2.13950316980389     -5.63447877900997     -2.84716257583382
