106
Coordinates from ORCA-job ./opt_b3lyp_cdz
  H   4.01255778883377     -0.10235958669616     -0.11047944788456
  N   4.98011194127657      0.25226991922803     -0.07100768658083
  C   5.95887666826264     -0.72094197399089      0.03779627480670
  N   7.26440949582000     -0.40898896677718      0.08797509778369
  C   8.14336984882960     -1.42039688973971      0.19490975868816
  C   7.79499387290099     -2.76555280796468      0.25746218903881
  C   6.42805961769005     -3.08591583936951      0.20558098293067
  C   5.50099421571700     -2.06417580962310      0.09558275080842
  H   4.42894716992611     -2.27008734612365      0.05313541137708
  H   6.08844933099673     -4.12389650972631      0.25141813337653
  H   8.56198753865178     -3.53686725758665      0.34407297235238
  H   9.19720069178941     -1.12236871723680      0.23273992654012
  C   5.01787198112999      1.63222205078945     -0.16402058051347
  C   6.23805467609741      2.32933080651097     -0.15257253425070
  C   6.31482672205606      3.73131733675913     -0.25082171442638
  N   7.53531943194258      4.38554083347046     -0.29472363615524
  C   7.69569338467855      5.77528448814230      0.13822676443652
  H   6.74732317484652      6.31655230644136      0.05412703233179
  H   8.40842376033882      6.26787968116218     -0.54969752026732
  C   8.23462779212464      5.84769840525129      1.57799611972444
  H   8.39035054557756      6.90364428423730      1.85997019084362
  H   7.46871265671109      5.43910956673751      2.26170020229907
  C   9.54131544653126      5.05237471320813      1.72037530264360
  H   10.34072263057513      5.56873677810079      1.15470407051695
  H   9.86707346175208      5.03314676853074      2.77379543500628
  C   9.38569500109629      3.62390049608306      1.17544122148279
  H   8.71013875130206      3.03918695657809      1.82439837639803
  H   10.35864763810075      3.10306389244678      1.16816247627918
  C   8.80597761609581      3.65944302963853     -0.24651610468112
  H   8.68055392665654      2.65376285450977     -0.66309315479556
  H   9.51038920151407      4.19357620414015     -0.91205555711403
  C   5.08871898558791      4.45015386062584     -0.35121920326408
  C   3.88940310437582      3.77224481087316     -0.35157006923252
  C   3.76958457068477      2.36338440794564     -0.25443353665862
  C   2.43800462816241      1.75738272452525     -0.24745136367906
  N   2.36862012347886      0.38670705627227     -0.22973146602550
  C   1.21547750277970     -0.25091681055597     -0.22074602286233
  N   -0.00109080846791      0.45150118635895     -0.23672260774317
  C   -1.21536188317500     -0.25488051668514     -0.22052175866934
  N   -2.37058627664240      0.37896851069842     -0.22934010290146
  C   -2.44445103186729      1.74939735485563     -0.24708981143473
  C   -1.25407866743260      2.49367638744028     -0.25239023963205
  C   -0.00338111903103      1.85439908693696     -0.25040903031443
  C   1.24521488851702      2.49776227305045     -0.25259406340390
  H   1.23450321130108      3.58392556777599     -0.24778869652930
  H   -1.24693397243424      3.57987120975014     -0.24746737281290
  C   -3.77799773985093      2.35105898515128     -0.25396008985552
  C   -5.02391052313286      1.61594776130818     -0.16257967206289
  N   -4.98172340437181      0.23616772733138     -0.06878070853024
  C   -5.95736181266160     -0.74006825056630      0.04101588269817
  N   -7.26384345307122     -0.43219183436764      0.09173557698190
  C   -8.13955861385814     -1.44631202316409      0.19960408858209
  C   -7.78692229990976     -2.79033738818772      0.26259723380702
  C   -6.41901566355279     -3.10642887905814      0.21015593803077
  C   -5.49522593275518     -2.08182887537755      0.09920770735235
  H   -4.42255919149112     -2.28438024764805      0.05630976929139
  H   -6.07612134949041     -4.14331759215196      0.25627780597039
  H   -8.55144319521640     -3.56401844347574      0.34995964195584
  H   -9.19430441016133     -1.15159049437594      0.23784689710781
  H   -4.01308492916522     -0.11541811552079     -0.10872817039341
  C   -6.24630476806159      2.30917613782042     -0.15095037604069
  C   -6.32757642203928      3.71084968553996     -0.25000402347676
  N   -7.55015246957386      4.36119315868312     -0.29368464263207
  C   -8.81849732086567      3.63110781539901     -0.24482019979952
  H   -8.68999765226406      2.62566414803957     -0.66103009079763
  H   -9.52477585814513      4.16274811347441     -0.91038050599654
  C   -9.39773169810141      3.59430674592952      1.17730302536759
  H   -10.36905628962896      3.07043452791291      1.17046757769871
  H   -8.72019614071139      3.01195055124297      1.82631631525933
  C   -9.55766965470369      5.02249956898156      1.72172435411416
  H   -9.88308612027350      5.00266379832251      2.77523868557844
  H   -10.35883737131301      5.53614399372371      1.15607019866807
  C   -8.25351137388367      5.82184176248814      1.57868864875441
  H   -8.41245641303734      6.87740230156052      1.86030849090112
  H   -7.48613863634963      5.41590737923154      2.26233980440566
  C   -7.71474483288035      5.75058617745601      0.13879920349610
  H   -8.42919319659921      6.24071511384207     -0.54910546204566
  H   -6.76808123780882      6.29477050280224      0.05426721810552
  C   -5.10382985223772      4.43353415804871     -0.35148437639789
  C   -3.90235323261328      3.75946599862343     -0.35196200640110
  H   -3.00023659790884      4.36196465957125     -0.45451993744539
  H   -5.09442174951740      5.51560583017607     -0.46892120497073
  H   -7.13389930773880      1.69686878880181     -0.04351601308443
  N   -1.19540311943765     -1.60197019641896     -0.19408545277828
  C   0.00321983172661     -2.19245486004830     -0.18203158697293
  N   1.19991195171905     -1.59807407224690     -0.19434518078984
  C   0.00560861164124     -3.68329905763392     -0.14870086346761
  C   1.21671470262564     -4.38868120704926     -0.12485132880470
  C   1.21561192744736     -5.78384960693741     -0.07686881348712
  C   0.01004176699185     -6.49245155842299     -0.04389015722504
  C   -1.19774247005572     -5.78767608000409     -0.07700532256100
  C   -1.20324492614153     -4.39250617030805     -0.12499490350779
  H   -2.13795946145145     -3.83531358514401     -0.13781680232478
  C   -2.50543787474711     -6.53941493358232     -0.09327166429014
  F   -3.50525890317689     -5.82863500007372      0.48132346557544
  F   -2.41928967144208     -7.71820286404679      0.56218868841755
  F   -2.90466767746200     -6.82119463100464     -1.35520287356709
  H   0.01175736334583     -7.58067834176566      0.01509492882686
  C   2.52559560618890     -6.53159515919752     -0.09299248385077
  F   2.44338760836933     -7.70985916119120      0.56394280267503
  F   3.52358732855821     -5.81711336246575      0.48015785082305
  F   2.92492445238785     -6.81373069777567     -1.35481376494948
  H   2.14965678845024     -3.82852578113715     -0.13754758332793
  H   2.98532162769380      4.37194617580617     -0.45319303465412
  H   5.07576086726984      5.53227349780845     -0.46785209757246
  H   7.12764502629036      1.71978712609984     -0.04594519767520
