90
Coordinates from ORCA-job ./opt_b3lyp_cdz
  C   9.42952781872063      1.32637496382300     -1.01806905953534
  H   9.77494880428496      1.43257305220210     -2.06008063751648
  H   10.22570523141958      1.75523179411606     -0.37929096053888
  C   8.13016704720166      2.11649861870883     -0.79505584559036
  H   7.36785017001877      1.81536738993353     -1.53501612299841
  H   8.30526615320675      3.19765504039636     -0.93222418783583
  C   7.58596990789971      1.85328988926608      0.61732319409675
  N   7.38290978184885      0.42401175359438      0.86095625500351
  C   6.14858542681834     -0.18232523287619      0.67750775128355
  C   5.02415491509430      0.56450205396355      0.26895734146037
  C   3.74880099369013     -0.00546941848165      0.13133978494813
  N   2.65811258463655      0.74004584801566     -0.29958533200614
  C   2.54900091529935      2.01886610623614     -0.81993901098736
  N   3.59834016910670      2.85836766804414     -0.83124741999448
  C   3.41808591630678      4.08349655434770     -1.35123199883780
  C   2.21609156031758      4.54851513906831     -1.87367184462301
  C   1.12164313452080      3.66890985619445     -1.85883862053823
  C   1.28072381365259      2.39673224170659     -1.33550274720930
  H   0.45092445521710      1.68678857308604     -1.31976926913106
  H   0.15149910078443      3.97620566549000     -2.25681601497225
  H   2.13551125504596      5.55863435314378     -2.27848055044573
  H   4.30250209118830      4.73064680295852     -1.34175492220840
  H   1.78998878387199      0.18880554114086     -0.28799120213687
  C   3.56545718909337     -1.40925422949112      0.40228969902900
  C   2.30725493496561     -2.14191405031503      0.28424206475870
  N   2.35949592180871     -3.48204694994950      0.36258582036501
  C   1.22516089317509     -4.17352490260435      0.20148963430305
  C   1.19923611108200     -5.57839333727113      0.20588638951664
  C   0.00035753823718     -6.25730404744077      0.00461739254116
  C   -1.19843306278029     -5.57843762795078     -0.19733187334119
  C   -1.22417380090940     -4.17356279725927     -0.19432604371975
  N   -2.35841072718330     -3.48209425626071     -0.35615568006606
  C   -2.30599957498216     -2.14189315575665     -0.27911680324761
  N   -1.14988592119453     -1.43806024330937     -0.10528343216877
  C   0.00061560524889     -2.10038088155012      0.00261695209146
  N   0.00053313723522     -3.50598887325681      0.00326682179825
  N   1.15120220800367     -1.43810910993772      0.10987763887140
  C   -3.56408796310365     -1.40918003319214     -0.39802555664461
  C   -3.74727295795461     -0.00513167606624     -0.12838141579180
  N   -2.65655053629118      0.74060829450760      0.30210306971233
  C   -2.54741432684827      2.01982017417910      0.82150463535650
  C   -1.27926798127685      2.39789718729977      1.33722768184580
  C   -1.12017342923829      3.67045869929605      1.85962605628083
  C   -2.21448849332354      4.55024572820716      1.87338367165739
  C   -3.41636846606160      4.08500238266288      1.35088335290759
  N   -3.59662503130317      2.85949531284843      0.83179099167163
  H   -4.30068263485727      4.73227858096597      1.34058840982498
  H   -2.13389528481444      5.56066842531513      2.27743185345434
  H   -0.15012418809120      3.97791230179430      2.25771250688233
  H   -0.44957308530353      1.68781254980021      1.32234750892570
  H   -1.78850661030281      0.18923994830380      0.29116546918085
  C   -5.02252018090542      0.56489714455784     -0.26675177227927
  C   -6.14698808690118     -0.18213391511605     -0.67482520854811
  N   -7.38118955892147      0.42422762289951     -0.85904604944736
  C   -7.58410166304085      1.85371027164378     -0.61647525823444
  H   -8.32147102351061      2.20793992223267     -1.36146504270375
  H   -6.65572902906551      2.40378081446517     -0.80729394259205
  C   -8.12837469480718      2.11800302175371      0.79567233489735
  H   -7.36614616861700      1.81731285163239      1.53590293182942
  H   -8.30335220431174      3.19927890491273      0.93205165112189
  C   -9.42784888074912      1.32819963517709      1.01916393003349
  H   -10.22393272081154      1.75670583592036      0.38003366328932
  H   -9.77332048985263      1.43518315927629      2.06107903983368
  C   -9.24653368212632     -0.15567856896181      0.66383522402760
  H   -10.21337734433210     -0.68661144164257      0.71120268602153
  H   -8.57511216856894     -0.63929795721078      1.39611919043766
  C   -8.63844292822999     -0.31781507195375     -0.74049807839478
  H   -8.48494017246434     -1.37612125523730     -0.97621721416169
  H   -9.34071727276629      0.07953945072203     -1.49720564989312
  C   -5.96183787332613     -1.57065088427869     -0.93017491242051
  C   -4.71413360129887     -2.13741336036188     -0.78643310834611
  H   -4.57916827321321     -3.19925776176926     -0.98839985203032
  H   -6.78401035977254     -2.19772183275449     -1.27073113493228
  H   -5.10515207729356      1.61435462427806     -0.01333133028130
  H   -2.14719813482995     -6.08955653127403     -0.35004859039882
  H   0.00028700102238     -7.35030041694240      0.00515820108606
  H   2.14793669004624     -6.08948413979321      0.35909513167094
  C   4.71546890876406     -2.13729896822386      0.79115243911618
  C   5.96328029894538     -1.57058486382891      0.93415081832586
  H   6.78542546243863     -2.19745757607626      1.27514105861037
  H   4.58038665419986     -3.19894028376968      0.99411199969450
  H   5.10689632599910      1.61371605198901      0.01455660153380
  C   8.64004000316463     -0.31829861131324      0.74282189933858
  H   8.48638303897954     -1.37642241125397      0.97926112413800
  H   9.34244501473172      0.07945501970455      1.49920154286934
  C   9.24803964041272     -0.15722552711309     -0.66167504559591
  H   10.21480673309022     -0.68832486340575     -0.70874501525854
  H   8.57649222475269     -0.64126779647214     -1.39356453233598
  H   6.65767359569695      2.40360344711487      0.80781224469314
  H   8.32344184679017      2.20798356362525      1.36199392130553
