50
Coordinates from ORCA-job ./opt_b3lyp_cdz
  C   2.34157152651256      3.50821807561900     -0.84441496401408
  N   2.41284641931738      2.10089311462239     -0.53743254925015
  C   3.55753653843270      1.44600324806174     -0.20690131652018
  C   4.79182616573474      2.14631726205539     -0.18094800558896
  C   5.95986673051411      1.49061576664720      0.15666560885127
  F   7.11028487563259      2.19739080775310      0.17891203053327
  C   5.99675312381325      0.13526129279721      0.48834947483081
  C   4.79484367546123     -0.55926009579016      0.45001454125194
  C   3.56251527204038      0.03312995773882      0.10111831196715
  C   2.34932370916867     -0.80610991937645      0.05183262340718
  N   1.14373163756379     -0.17563678558279      0.04324952470142
  C   -0.00015042887528     -0.86526303647113      0.00944241999899
  N   -1.14418115093504     -0.17501329036689      0.00635942687328
  C   -2.34976161192028     -0.80447709140013     -0.02969964009762
  C   -2.40744944593026     -2.19874137905766     -0.04559740808573
  C   -1.22719902002803     -2.96485641236718     -0.04976234124875
  N   -0.00007127775434     -2.28017373424097     -0.02193975358764
  C   1.22708984404492     -2.96535202943709     -0.02445843557144
  C   2.40729473940169     -2.19958591077626      0.00575169744436
  H   3.34736822123390     -2.74268879065507     -0.03940942736174
  C   1.20813878998096     -4.37403037608854     -0.06149983807422
  C   0.00003827553921     -5.06117665620750     -0.08375637435201
  C   -1.20806326218219     -4.37387268489491     -0.07544496082421
  H   -2.16438604799642     -4.89540840328098     -0.09329156578366
  H   0.00009460518379     -6.15365975719468     -0.10805390902285
  H   2.16450762080273     -4.89575784205836     -0.06667422983672
  H   -3.34739953939213     -2.74348681250489     -0.02439709377168
  C   -3.56294519662252      0.03603039395677     -0.04036634163512
  C   -4.79645173584870     -0.54113168051940     -0.41017642933598
  C   -5.99858898442536      0.15395929409132     -0.41460956964125
  C   -5.96089508738855      1.49382498071560     -0.02500028997741
  F   -7.11161635519110      2.20032792729458     -0.01245395500745
  C   -4.79184966733679      2.13483903624507      0.33623646110581
  C   -3.55714793384812      1.43465641252012      0.32733481696526
  N   -2.41152788281024      2.07595853471203      0.67989717546601
  C   -2.34055532136120      3.46706467478253      1.05348598182606
  H   -2.95243118338130      3.68978110720674      1.94721446818900
  H   -1.29642364387763      3.71269461852354      1.29362668214486
  H   -2.67419374313960      4.14575972655209      0.24396559430792
  H   -1.55970052390717      1.52878799271180      0.52814492998326
  H   -4.84092840665421      3.18584531830480      0.61522515990100
  H   -6.93837005609585     -0.30824836440544     -0.71545649474601
  H   -4.81122057942940     -1.58130624949616     -0.73591013047282
  H   4.80841964163809     -1.61239210062981      0.73116741773109
  H   6.93564471142235     -0.33920237095746      0.77242980784897
  H   4.84153777360299      3.20836680041858     -0.41430625144008
  H   1.56065049300704      1.54881542397109     -0.40712589464260
  H   2.95694400428950      3.77383708123615     -1.72385067072586
  H   1.29819830837575      3.76369518714687     -1.07753144226733
  H   2.67070822571441      4.14819712317244     -0.00209800684319
