48
Coordinates from ORCA-job ./opt_b3lyp_cdz
  C   2.61487644827988      3.66062829240609     -0.00260457761380
  N   2.58082016618643      2.21831422262155     -0.00302448295918
  C   3.68209790662984      1.42471374690977      0.00400449528959
  C   4.97608205677338      2.00955026446310      0.00810580069909
  C   6.10086948000286      1.20865494008524      0.01384199456418
  F   7.31086066633019      1.80533876405183      0.01756355425298
  C   6.04233475004742     -0.18906510483413      0.01613156730646
  C   4.78547512753005     -0.77022844655129      0.01266264569515
  C   3.58789067735734     -0.01759573903196      0.00691714230407
  C   2.32038357904513     -0.75595521980165      0.00457192101697
  N   1.15539792189960     -0.05002033690332      0.00155693314835
  C   -0.00003748393193     -0.71442625226563     -0.00024684641064
  N   0.00002678221193     -2.11919465503045      0.00078146449009
  C   1.23874883658565     -2.78830801500458      0.00399308117695
  N   2.38514892853512     -2.09485781615209      0.00592420190941
  C   1.21520953352102     -4.19229834312761      0.00496075654042
  C   0.00015353955735     -4.87217330998147      0.00274743051524
  C   -1.21496500757772     -4.19241443237378     -0.00041950897192
  C   -1.23863384181065     -2.78842607448841     -0.00144386105119
  N   -2.38509749243846     -2.09508513300343     -0.00432365865156
  C   -2.32045303472877     -0.75617591043119     -0.00495978916035
  N   -1.15553317401620     -0.05012933918683     -0.00301747680894
  C   -3.58801897882443     -0.01792536768691     -0.00815482519628
  C   -4.78555580661418     -0.77064731453580     -0.01176287126447
  C   -6.04245595341570     -0.18957232775518     -0.01542077367376
  C   -6.10108151539752      1.20814644198294     -0.01550408182407
  F   -7.31111493823735      1.80474405129802     -0.01930035246881
  C   -4.97634324426227      2.00912405205368     -0.01199527216799
  C   -3.68231806805733      1.42437749169040     -0.00795849135674
  N   -2.58107924338602      2.21805018810400     -0.00371605787692
  C   -2.61521792715595      3.66036030590607     -0.00566134320671
  H   -3.11995278745859      4.06875231133997     -0.90151074906302
  H   -1.58233389479387      4.03614686194895     -0.00060320716337
  H   -3.12899416130254      4.07047935163188      0.88415133516639
  H   -1.69180502863919      1.71379324952405     -0.00353358659890
  H   -5.10788570568765      3.08952393003071     -0.01239376244158
  H   -6.95937188424536     -0.77859833961686     -0.01827699079089
  H   -4.68472324065638     -1.85503080301982     -0.01167541483552
  H   -2.17613231191778     -4.70312063841836     -0.00214662917511
  H   0.00020395751981     -5.96497526558648      0.00352067140877
  H   2.17642394518346     -4.70291286639596      0.00742562580545
  H   4.68471355442465     -1.85461736995822      0.01451097446975
  H   6.95928653360003     -0.77802462517287      0.02068771496355
  H   5.10755456673827      3.08995813585169      0.00680778101048
  H   1.69157176285083      1.71401117745148     -0.00158765399638
  H   3.13092135417415      4.06960357148655     -0.89159749868793
  H   1.58198935407927      4.03634914189662     -0.01092878472711
  H   3.11727834889230      4.07022840527998      0.89403701300994
