64
Coordinates from ORCA-job ./opt_b3lyp_cdz
  C   2.61890072168970      3.15378854398443      0.03252026690502
  N   2.58770337440310      1.71183041135947      0.02594643738877
  C   3.68901793199859      0.91610383841029      0.02757973022965
  C   4.98264772727867      1.49876239549311      0.02362711184321
  C   6.13614586253191      0.71908711496304      0.03049057615100
  N   7.40662895536317      1.33972498252778      0.04130948807556
  C   7.71141043959020      2.56447331691096      0.61867722396774
  C   9.04766926661498      2.82321202954857      0.41001043710702
  C   9.58484748453792      1.72362364117742     -0.33044993558857
  C   8.56000481384697      0.82775515709143     -0.53709893809389
  H   8.53508787986743     -0.10725036839628     -1.08758582279222
  H   10.60799663965199      1.60685456193639     -0.68072224615553
  H   9.58550584649406      3.70011650602707      0.76360821870056
  H   6.96016127392644      3.11643673316248      1.17447623460895
  C   6.04081941182239     -0.68875073913391      0.02861170110541
  C   4.78695093244749     -1.27120713405226      0.01747987563063
  C   3.58740055677524     -0.52372321259629      0.01702539670119
  C   2.32032923880534     -1.26081804362329      0.00898980218002
  N   1.15555622930812     -0.55419808199542      0.00574763421585
  C   -0.00006871000648     -1.21804793597258     -0.00213777849407
  N   -1.15543845327933     -0.55371275509445     -0.00724152554781
  C   -2.32048487792037     -1.25984995078324     -0.01355646358582
  N   -2.38563202060660     -2.59913624785290     -0.01494995032096
  C   -1.23937293235235     -3.29237457096611     -0.01185617237707
  N   -0.00036732112321     -2.62331175521256     -0.00508996682952
  C   1.23840820282679     -3.29288295303149     -0.00113591207907
  N   2.38493235649973     -2.60012417613229      0.00475082091472
  C   1.21429734482048     -4.69700884940056     -0.00406021056545
  C   -0.00090775452420     -5.37649874758122     -0.01075323315208
  C   -1.21585033418331     -4.69651495456091     -0.01468126859535
  H   -2.17721971008343     -5.20682566672429     -0.01996384999153
  H   -0.00108715357041     -6.46932362307603     -0.01298929144291
  H   2.17544165264722     -5.20776261031509     -0.00089219944240
  C   -3.58725284714842     -0.52221835001944     -0.01897127309416
  C   -4.78710411147629     -1.26920689394570     -0.02471653450218
  C   -6.04072404661671     -0.68620402623928     -0.03483305137913
  C   -6.13549251190629      0.72166914988200     -0.03023524949472
  N   -7.40571314900617      1.34285891349506     -0.04032733321892
  C   -7.70902749538697      2.57040648979603     -0.61249664035207
  C   -9.04553752361332      2.82870799980902     -0.40489739929381
  C   -9.58440619915864      1.72590161782303      0.32952476420142
  C   -8.56026952943293      0.82866760562340      0.53373646108402
  H   -8.53665385816836     -0.10890087781610      1.07990444524333
  H   -10.60819398770374      1.60791599422711      0.67751570392475
  H   -9.58242643143718      3.70746489627231     -0.75532269871939
  H   -6.95661316242811      3.12464582791261     -1.16444180414591
  C   -4.98170214725793      1.50083773711250     -0.01783366187959
  C   -3.68829811856915      0.91768263784083     -0.02224844901504
  N   -2.58668659963868      1.71294677630418     -0.01381631465156
  C   -2.61727473062264      3.15493218138454     -0.01686068081064
  H   -3.13384498035546      3.56332378951509     -0.90603942640329
  H   -3.11582786273179      3.57008677155017      0.87961797790036
  H   -1.58332862899327      3.52773904670437     -0.02848187901470
  H   -1.69736041819431      1.20907984688838     -0.00588047845157
  H   -5.07687138932557      2.58329825124298      0.03346180046189
  H   -6.93811151408958     -1.30205627188591     -0.08427301179987
  H   -4.69151118853175     -2.35410011841224     -0.03618730173541
  H   4.69093960658634     -2.35610575528858      0.02370679342725
  H   6.93803357591660     -1.30518626177256      0.07373424521659
  H   5.07816553962130      2.58141010039277     -0.02283312657985
  H   1.69818828012454      1.20838858418546      0.01333197234859
  H   1.58518043219531      3.52698490834795      0.05025703350306
  H   3.13972920989786      3.55934511103870      0.92044117310009
  H   3.11349920825318      3.57138309273985     -0.86508263744046
