19
Coordinates from ORCA-job ./opt_b3lyp_cdz
  C   1.10688372902781     -7.90529395480847     -7.44057406222200
  C   -0.26376814750843     -8.04928553004152     -7.31249446675608
  C   -1.03882183872036     -7.03113759106985     -6.70689826715087
  C   -2.44254420404223     -7.09269389150009     -6.53420055938427
  C   -3.12158558919564     -6.04883286819424     -5.92996396980137
  C   -2.43664573112011     -4.91542569110439     -5.47913451088182
  C   -1.05299275575678     -4.82909461865078     -5.63695250110612
  N   -0.37188214576363     -3.72395082660734     -5.19930184528740
  N   0.92853607121970     -3.65252836730407     -5.35209902044466
  N   1.63309717527258     -4.60430815926466     -5.91532617553213
  C   1.01187267605205     -5.73566925094264     -6.37457029376009
  C   1.75203311914837     -6.75439612823930     -6.97557598803630
  N   -0.37288264856351     -5.88746787048131     -6.24835907712940
  H   1.69293286006769     -8.69891741784428     -7.91001083228810
  H   -0.78315383064747     -8.93851617707154     -7.66870121647055
  H   -2.95931768780179     -7.98303998071672     -6.89142951233340
  H   -4.20503951347821     -6.10946098919066     -5.80302422393513
  H   -2.93086401438261     -4.07279607865569     -4.99921982323351
  H   2.82648247619269     -6.60050460831234     -7.05600365424689
