80
Coordinates from ORCA-job ./opt_b3lyp_cdz
  C   -2.38285453555119     -2.52217079484734      1.17686939102285
  N   -2.45424587671086     -1.13065671995304      0.81724031122984
  C   -3.60613212834017     -0.45813620157471      0.54087999692140
  C   -4.84634920198701     -1.13938136109264      0.59107854805823
  C   -6.07526135117210     -0.51247713827876      0.32360902873825
  N   -7.28918748042409     -1.18842957311252      0.43888127562010
  C   -7.35402924152885     -2.58009269978848      0.87988208623868
  H   -6.53087196299787     -2.78977911587911      1.57407659160788
  H   -8.28902582799473     -2.69501132158865      1.46120157028016
  C   -7.37974496249466     -3.56281702326325     -0.30159924666411
  H   -6.42483777815504     -3.49304178952992     -0.85233192909643
  H   -7.46542125916235     -4.59807415278072      0.07233276814871
  C   -8.55144291491830     -3.22742601016396     -1.23808661860543
  H   -8.52640760647743     -3.86658030975054     -2.13660462590801
  H   -9.50263327018687     -3.45436832282635     -0.71876455508551
  C   -8.53778564406448     -1.74280433030091     -1.63295787304806
  H   -9.44442119421479     -1.48706236356645     -2.20889271797247
  H   -7.67058269560877     -1.53525987744764     -2.28562296747155
  C   -8.44477004335796     -0.83909034984561     -0.39056698249244
  H   -8.39842459294636      0.21465952035730     -0.68537427590691
  H   -9.35676110162465     -0.96055259220291      0.22441443226717
  C   -6.04176844363194      0.86409277403797     -0.03328681375409
  C   -4.83560388732473      1.53608691769200     -0.08159797520061
  C   -3.58332932233644      0.94530258964569      0.19895191369233
  C   -2.36207986551443      1.75768100569372      0.14918970857665
  N   -1.16329975697081      1.11246734580433      0.21250879020957
  C   -0.00643257055741      1.77952617107625      0.17077460501568
  N   0.02017837693136      3.18997794925620      0.06391182797372
  C   1.26204907598013      3.85007873499890      0.02277413371836
  C   2.42523076044843      3.06672935538146      0.09197698668093
  C   2.34591678024291      1.67394719928657      0.20773243488876
  N   1.12398054515452      1.07054931579162      0.23406960551368
  C   3.53653635259569      0.82085177796720      0.29690097343903
  C   4.80373845818727      1.40228077639769      0.52583583311104
  C   5.98467365725759      0.68898658033801      0.59691320912046
  C   5.97357527855489     -0.72374131285206      0.43039942768391
  N   7.15215133361229     -1.46002052416582      0.54411915802545
  C   7.15586191560817     -2.91952407159077      0.47169372577242
  H   6.21224251230726     -3.31440046334355      0.86822457796555
  H   7.95372481532112     -3.27821307498047      1.15001315978404
  C   7.44574138238910     -3.43029831695454     -0.94872670506914
  H   7.47551280011915     -4.53393858114491     -0.95248638043699
  H   6.62347575735449     -3.12383651399736     -1.61949081367912
  C   8.77733049096542     -2.85147606113129     -1.45270845946076
  H   9.60596290109286     -3.29204389157686     -0.86514975863515
  H   8.95308534753804     -3.13750821422595     -2.50331217637427
  C   8.81027177874283     -1.32345362292605     -1.29789430168602
  H   8.09011410648705     -0.85952395645997     -1.99592741195959
  H   9.80926303056814     -0.92955143215073     -1.55469182840582
  C   8.44408346952762     -0.90269729740444      0.13675485886560
  H   8.43197561230453      0.18903116650933      0.22396915486291
  H   9.21453385022924     -1.27344462211600      0.83934137369107
  C   4.72942969921888     -1.33817880169443      0.20898466720653
  C   3.51239131128918     -0.61634900424790      0.15729197034280
  N   2.34132094102241     -1.27870774021437     -0.05750576625374
  C   2.22103358258055     -2.70602202389639     -0.19715715167237
  H   2.58406107543995     -3.25756794515142      0.69336063432170
  H   1.15990582947207     -2.95672733737026     -0.34022576410190
  H   2.77631717506283     -3.09377638681761     -1.07310731598336
  H   1.50849417939871     -0.68401573463794      0.00245398803294
  H   4.68113729462053     -2.41159550783290      0.05105024900162
  H   6.90539406939981      1.21937734765383      0.83395002516750
  H   4.86229144430014      2.47808172386776      0.69472218833083
  H   3.37392509823384      3.59183748951148      0.02264344975887
  C   1.26801055859246      5.25634511817829     -0.08987821191801
  C   0.07200086160041      5.96252024286852     -0.14971109900395
  C   -1.14923977048237      5.30072418581741     -0.10428693905067
  C   -1.19627564802917      3.89405957379381     -0.00016009621024
  C   -2.38800308209516      3.15409551955965      0.04796857021799
  H   -3.31511940791027      3.72020791236768      0.03015858730233
  H   -2.09546016928229      5.83893050630629     -0.15017253455753
  H   0.09241071996647      7.05220097060813     -0.23342447439904
  H   2.23375847224743      5.75961738961515     -0.12332552152432
  H   -4.86638501135694      2.58825742189045     -0.36584211489131
  H   -6.95767078540043      1.41602285611124     -0.23651651032289
  H   -4.82394252630729     -2.20071488703459      0.82014520783843
  H   -1.60255919813479     -0.57935210212468      0.66917171998830
  H   -1.33241947739033     -2.78030309820564      1.37531345300029
  H   -2.75174749700502     -3.19516306787609      0.37654388059847
  H   -2.96261799772152     -2.75067523116350      2.09182157417173
