79
Coordinates from ORCA-job opt_b3lyp_cdz
  C   -7.47917609277498      1.99362399239618     -0.20028602742923
  N   -7.38747419441239      0.59910336327588      0.19372351220168
  C   -6.16009344692612     -0.03257559516808      0.21956503351944
  C   -4.97254530978482      0.67237349260234     -0.04462465706085
  C   -3.69981160864389      0.06381370528026     -0.01632804306273
  N   -2.55970656205822      0.79826479482871     -0.25345770892658
  C   -2.42204088099517      2.18236089743911     -0.46866173872232
  C   -1.53447890472781      2.61309755236182     -1.47323680706855
  C   -1.31636089957533      3.97280085800781     -1.69662579639640
  C   -1.98902436618547      4.93332977105275     -0.93461205185086
  C   -2.86248721895175      4.51376387867702      0.07371934115041
  H   -3.37758356531439      5.25268284158620      0.69353566474986
  H   -2.03465320785827     -6.22306240073213     -0.22221291991568
  C   -1.10232587419595     -5.65926719873642     -0.23210920562164
  C   -1.17614144807697     -4.25789268259937     -0.11273029022782
  C   -2.37580117863609     -3.53503764103876      0.00683464653921
  H   -3.72044302917909      2.84130178527865      1.13661289596240
  C   -3.07185760495994      3.15405720013914      0.31741509773033
  C   -2.36701110188026     -2.14100443566461      0.09750062675364
  N   -1.17284450056225     -1.46887927019818      0.05997796983127
  C   -0.01980405876245     -2.12136837821621     -0.02964961773775
  N   1.12933579855438     -1.42674689378132     -0.02148005009297
  C   2.30719678355263     -2.09014187144517     -0.12752957201115
  C   3.55985615920513     -1.33642106367287     -0.08140109254814
  C   4.77067920392689     -2.06434638416990     -0.17710835794419
  C   6.01872546013358     -1.48537487734386     -0.09662737554191
  C   6.12976550352148     -0.08078444139161      0.11445089292923
  N   7.36602917290007      0.52375053910229      0.22416518589681
  C   7.45878506841114      1.93591973070458      0.55046134149373
  H   7.03079655897802      2.17234784563126      1.54409581430058
  H   6.93180134276633      2.55611724863652     -0.19491105657005
  H   8.51415940129817      2.23797159771454      0.55095239766006
  C   8.57244697806092     -0.28569599649258      0.26434905806736
  H   9.44601135744811      0.37561444406818      0.33247281789115
  H   8.59450367698722     -0.97477770133654      1.13060106468285
  H   8.68402327025763     -0.89247150220220     -0.65061829869864
  C   4.94393467551685      0.67061961118595      0.21413408577822
  C   3.66453199121735      0.08975307234668      0.09676399182253
  N   2.52352461825361      0.85458211181004      0.19460586258470
  C   2.39756198491020      2.25083490694064      0.29816375620581
  C   1.43310496258305      2.76871660959779      1.18406965978245
  C   1.22734774565718      4.14449232281332      1.28852340559221
  C   1.98723239867316      5.03582802919204      0.52416675184459
  C   2.93842899634443      4.52872868316397     -0.36691907481871
  C   3.13851559386614      3.15187957104247     -0.49174592181252
  H   3.85237991551449      2.76933226919022     -1.22224478846714
  H   3.52423274442767      5.21138750655916     -0.98849568565854
  H   1.83236722264266      6.11333154206373      0.61421982454755
  H   0.46809913559280      4.52150705337891      1.97765386313762
  H   0.84792912756451      2.07546190063832      1.79301845062303
  H   1.66497371511872      0.29085523037842      0.24376006676333
  H   4.99760655307270      1.73496445786798      0.41761248971104
  H   6.90270849925825     -2.11424397316119     -0.18146081635908
  H   4.68408046142119     -3.14120482414021     -0.31486337357567
  N   2.40504275119644     -3.42705770423496     -0.25981714459260
  C   1.28387369767277     -4.15030482252621     -0.25545286572077
  C   1.31343784184060     -5.55250344672232     -0.37384801154882
  C   0.13165749719088     -6.28673562388378     -0.36118118486246
  H   0.17487997366406     -7.37499088208460     -0.45353027951510
  H   2.29436692266934     -6.01391487578832     -0.47093276253091
  N   0.02180975011109     -3.52878745047104     -0.12612657797630
  C   -3.60571216420496     -1.35887610369607      0.20672925233259
  C   -4.81867761768871     -2.02878028477380      0.49437917756709
  C   -6.05645994414898     -1.41909077655376      0.52197376446460
  H   -6.93443973317212     -2.01111835273330      0.77189509342117
  H   -4.78402205256578     -3.09188201642490      0.73293342063042
  H   -1.82541991832061      5.99771410776575     -1.11719397073699
  H   -0.61763862735420      4.28270422637521     -2.47724380035142
  H   -1.01991318073422      1.86416172116320     -2.07993222259737
  H   -1.70754553366012      0.22333330874991     -0.27798537841141
  H   -5.01968674727423      1.72579857304560     -0.29974893373489
  C   -8.60788731083336     -0.17366192612929      0.34799295234439
  H   -8.64401532875903     -0.68941082041544      1.32374287008027
  H   -8.72752177465982     -0.93962931407912     -0.44215070714192
  H   -9.47055856101898      0.50324655462242      0.29853101365885
  H   -6.87633687789878      2.64069442977119      0.46064069686338
  H   -7.13482644967384      2.16464951368605     -1.23862995203874
  H   -8.52412442747765      2.32180196189921     -0.12770539014176
  H   -3.29704059507482     -4.10987920302328     -0.02234597609526
