98
Coordinates from ORCA-job ./opt_b3lyp_cdz
  C   2.58569094514553     -3.33866981069432     -0.62802013709821
  H   3.58353146225525     -3.42255979890367     -0.17286554794028
  H   1.84648617536622     -3.34134810915628      0.18857693368268
  H   2.42207972970757     -4.23775507379346     -1.24549838107921
  C   2.43242851071713     -2.06071112849969     -1.48343036819789
  N   2.55136894262151     -0.83865078595894     -0.67062626427679
  C   3.63931529504415     -0.24623298597764     -0.08641396472479
  C   4.88506196885121     -0.90903329816374      0.03375494669514
  C   6.01551584055305     -0.32938044085936      0.63594951894957
  N   7.20716420560614     -1.03693920554460      0.80407055721625
  C   8.50383437956672     -0.35569159425131      0.80974778269494
  H   9.15713742525291     -0.86784587379916      1.54167763292233
  H   8.38956814150545      0.67790842407235      1.15340492311467
  C   9.16391340889315     -0.38989535202034     -0.58029175570467
  H   10.15787056622443      0.08826445471579     -0.52959475784601
  H   8.55087703138029      0.21073099347071     -1.27641862819633
  C   9.28512793682034     -1.83042713287637     -1.09987882924820
  H   10.02321774410440     -2.37668211618247     -0.48121502659040
  H   9.67580731023955     -1.83830896174032     -2.13128312282859
  C   7.93488646300071     -2.56086231119381     -1.02614901721727
  H   8.05491538525617     -3.62708145219930     -1.28622948067627
  H   7.23112266312939     -2.12457791432347     -1.75739042508934
  C   7.34298530540098     -2.43032490386320      0.38654911457385
  H   6.37840828168922     -2.94484850077619      0.47817969016438
  H   8.02608979131512     -2.92178554573224      1.10580828181958
  C   5.88834994528659      0.99463711477378      1.13666219737767
  C   4.68621955553354      1.66229569096806      1.00661366099687
  C   3.53614205090820      1.11205784302201      0.40055553635982
  C   2.33300743331310      1.94416413928827      0.27206479141396
  C   2.38624085836162      3.34208498488014      0.30114751456293
  C   1.21617311385161      4.10679118414724      0.15635352434298
  C   1.19519163019245      5.51737382959101      0.14862464885901
  C   -0.00416584968487      6.20252208902101     -0.00765207962765
  C   -1.20251278001749      5.51522500819112     -0.16223309140414
  C   -1.22141797999820      4.10459660310856     -0.16646798867373
  C   -2.39036094409028      3.33781553523274     -0.30936810106052
  C   -2.33506347530451      1.94005333583859     -0.27677093846910
  N   -1.13844415798313      1.31311809989884     -0.11390106577847
  C   -0.00107113741731      2.00477581304129     -0.00242359080269
  N   1.13730359458870      1.31505745269430      0.11081384764034
  N   -0.00211818219941      3.42118156091041     -0.00420355129283
  C   -3.53696498425377      1.10585097963765     -0.40320194860344
  C   -4.68776600191440      1.65279919576522     -1.01084761770948
  C   -5.88891096127134      0.98304834481261     -1.13921881045945
  C   -6.01427778874627     -0.33976818966807     -0.63485950843077
  C   -4.88305096664047     -0.91614347715840     -0.03097152438296
  C   -3.63821257572988     -0.25128827515964      0.08734524104757
  N   -2.54937364848051     -0.84059899516724      0.67300607049193
  C   -2.42835667575024     -2.06083275459804      1.48823047809892
  C   -3.41577493214462     -2.06951528277089      2.67517825024023
  H   -4.46644848054575     -2.12066547285037      2.35721290529245
  H   -3.29238601984482     -1.15708882307426      3.27982565517044
  H   -3.21933446097986     -2.94106971359699      3.32116129789271
  C   -2.57957477488980     -3.34067423867991      0.63528516146812
  H   -3.57719220087826     -3.42688983472617      0.18007628094951
  H   -2.41473983070852     -4.23831306789852      1.25453607172786
  H   -1.84019981698095     -3.34385970744596     -0.18115689601640
  H   3.22514888395305     -2.94324977163475     -3.31449127581431
  C   3.41999810655788     -2.07005139675484     -2.67024665947628
  H   3.29506261275646     -1.15906243866792     -3.27674125868943
  H   4.47072293201704     -2.11870116102323     -2.35206188777540
  C   -0.99850855948731     -2.02395939217755      2.06336886512845
  H   -0.24631871444953     -1.96639628714884      1.26009377531950
  H   -0.79888246542827     -2.92878993837780      2.65800441020382
  H   -0.86145513010591     -1.14504671269126      2.71327482164872
  H   -1.69769171301345     -0.28278784679047      0.55485031368525
  H   -4.95322996063028     -1.92220077971456      0.36364650008941
  N   -7.20495455832424     -1.04949722026133     -0.80109724037098
  C   -8.50251713382514     -0.36988331877143     -0.80965532044771
  H   -8.38968664993381      0.66225091669291     -1.15813144150152
  H   -9.15514969241788     -0.88627908178948     -1.53918617650452
  C   -9.16248625066376     -0.39865496427282      0.58053879031826
  H   -8.55017574375032      0.20580650305377      1.27397812602745
  H   -10.15701892558074      0.07807897519542      0.52773462172191
  C   -9.28194872817250     -1.83702537587824      1.10649184719987
  H   -9.67258305222231     -1.84084829409985      2.13793652875944
  H   -10.01942434853135     -2.38688127338149      0.49028616498897
  C   -7.93084361348557     -2.56616793676657      1.03583116122216
  H   -8.04955317573826     -3.63136073137931      1.30067985590459
  H   -7.22748442866145     -2.12576530881421      1.76498690900532
  C   -7.33930849743262     -2.44122994263869     -0.37752174035626
  H   -6.37424885290550     -2.95519771665626     -0.46707090168891
  H   -8.02202281125400     -2.93646128126441     -1.09454492554044
  H   -6.70489418869765      1.46093604970794     -1.67854863232244
  H   -4.61802717846326      2.65175775953282     -1.44479839253275
  H   -3.33113996178782      3.87734196453137     -0.38546089363832
  H   -2.15143070055022      6.03665598901392     -0.28376349209221
  H   -0.00497102129003      7.29559044446791     -0.00900417268577
  H   2.14333994911599      6.04050100289850      0.26886941104841
  H   3.32622160603810      3.88318934477405      0.37588030377727
  H   4.61506200269124      2.66228135992473      1.43796135336428
  H   6.70369917146244      1.47508949727982      1.67469217916134
  H   4.95668755851635     -1.91611126474228     -0.35802205198919
  H   1.69882712123728     -0.28189804839481     -0.55377191022537
  C   1.00257309222111     -2.02733635574153     -2.05876139108343
  H   0.86408660155592     -1.14981112252342     -2.71023427378351
  H   0.80456090934323     -2.93356274124002     -2.65180772842154
  H   0.25020699060055     -1.96964460044334     -1.25565917488071
