96
Coordinates from ORCA-job ./opt_b3lyp_cdz
  C   1.07352099431738     -2.24243225740430     -1.90965701655692
  H   0.91193541254132     -3.16131775130053     -2.49425502954655
  H   0.90814834005720     -1.37727348695839     -2.57121074916870
  H   0.31419414174641     -2.20351438608239     -1.11259721055755
  C   2.49935021711271     -2.21898649798330     -1.32549669659270
  N   2.57085716430331     -0.98846828194221     -0.51542403028132
  C   3.65878407486080     -0.32348983651201     -0.01685230970011
  C   4.92815500015266     -0.92972709789211      0.13383720904925
  C   6.03446818009683     -0.22473711828118      0.63027527942468
  C   5.80971927874804      1.14586857609657      0.95124317668616
  N   4.63407225932508      1.72950965688957      0.82220920651894
  C   3.55480540442852      1.06139758739862      0.37166868225579
  C   2.32369591407548      1.86929702304129      0.28126629196036
  N   1.14266669739698      1.22650971628329      0.08180566923306
  C   0.00008652884030      1.91577766735311     -0.00552882715852
  N   -1.14285446352006      1.22661225668815     -0.08896359185746
  C   -2.32355632573613      1.86887718018568     -0.29200130324008
  C   -2.37457181386470      3.25543671940467     -0.41102537828272
  C   -1.20914379865492      4.01944636293281     -0.23099216663924
  C   -1.18667189019108      5.42986678733356     -0.23839114063621
  C   0.00119662018890      6.11723029370469     -0.01752637626733
  C   1.18869791710335      5.43051632172767      0.20729233024729
  C   1.21042034988900      4.02006310391932      0.20799093340182
  C   2.37543810408789      3.25648033597274      0.39243242748688
  H   3.32266296482781      3.75728752798482      0.57158846162593
  N   0.00045688565696      3.33228491923001     -0.00954329804651
  H   2.13158220517376      5.95008915887480      0.37403722402872
  H   0.00148651489115      7.21031154952310     -0.02066716587697
  H   -2.12928039704169      5.94897548684003     -0.40811410985010
  H   -3.32154096940985      3.75572042299079     -0.59296855636361
  C   -3.55513141309896      1.06115679421974     -0.37769143903854
  N   -4.63417647639969      1.72749369488222     -0.83145429340973
  C   -5.81020486928766      1.14387075285789     -0.95690410988256
  C   -6.03566277890249     -0.22480915958881     -0.62834625150804
  C   -4.92960495607638     -0.92780044032658     -0.12857028872637
  C   -3.65976703879249     -0.32157724134832      0.01821766256301
  N   -2.57198945506897     -0.98478471926124      0.51959212174296
  C   -2.50141115907489     -2.21003765324959      1.33775815122108
  C   -3.49499038738298     -2.18307712944842      2.51918099296151
  H   -4.54511193212023     -2.19198564849396      2.19505410352976
  H   -3.33942490372893     -1.27929850395898      3.12935088606900
  H   -3.33697895528314     -3.06456725927540      3.16201538272798
  C   -1.07507135609254     -2.23162880913996      1.92070742776916
  H   -0.31651122917312     -2.19974142103588      1.12260759080714
  H   -0.90756437630607     -1.36202681556113      2.57586343048135
  H   -0.91442324842037     -3.14657676404758      2.51170469347044
  C   -2.70330808481042     -3.47853938323757      0.47956641014612
  H   3.70033124095587     -3.52527017315437     -0.00483139379316
  C   2.69878539125844     -3.48197933033206     -0.45864318185062
  H   -2.57363031115474     -4.38518329884355      1.09398454095367
  H   1.96183789040623     -3.50422412445926      0.35951526517905
  H   2.56900443831340     -4.39260076119671     -1.06712868165639
  H   -3.70550814371550     -3.52392931310504      0.02741614231932
  H   -1.96748678115549     -3.50705264645383     -0.33940912404379
  H   -1.71885811451015     -0.41657041179366      0.46509423358412
  H   -5.03626459246790     -1.96927314028808      0.15251213353457
  N   -7.27309979465852     -0.82479933099198     -0.85350292969803
  C   -7.50196125254775     -2.23651306790481     -0.55028279876447
  H   -6.57981277909264     -2.80919162445749     -0.71124078170503
  H   -8.23408007658429     -2.61388122634663     -1.28903036513080
  C   -8.06991215844547     -2.44156398036828      0.86349340056897
  H   -8.26282992731989     -3.51429912339336      1.03871687198398
  H   -7.31908965061120     -2.12085122728990      1.60776361126868
  C   -9.36001183832698     -1.62391139757595      1.03691958788030
  H   -10.15150500365220     -2.06208556604092      0.39877620776564
  H   -9.72453933881543     -1.69002352471477      2.07566942409936
  C   -9.14618413432935     -0.15682384862768      0.63339160413013
  H   -10.10346989607770      0.39277835130139      0.65076859733142
  H   -8.47559752027382      0.33939373216843      1.35816996336921
  C   -8.51857050948941     -0.05546306605806     -0.76774055033216
  H   -9.22049057592380     -0.46462391679146     -1.51846158808962
  H   -8.34153168962634      0.99083650248919     -1.03856078573380
  H   -6.61090553453064      1.76905473339703     -1.35791841264316
  H   4.54382882146716     -2.21008971901105     -2.18121941951316
  C   3.49397945306775     -2.20118517565368     -2.50620563764068
  H   3.33482720352560     -3.08631527098510     -3.14373784056390
  H   3.34058836332300     -1.30088810283371     -3.12204525357443
  H   6.61062995352322      1.77285014812336      1.34898180293598
  N   7.27141883250154     -0.82435685417682      0.85917473039640
  C   7.50014551463105     -2.23714254450562      0.56073634162857
  H   8.23210244275967     -2.61209069538835      1.30084941741531
  H   6.57796086958226     -2.80924871520401      0.72346992359460
  C   8.06823163837615     -2.44685382982428     -0.85231134779142
  H   8.26095513940030     -3.52018248973213     -1.02408389504868
  H   7.31751956841475     -2.12838660308337     -1.59765548569995
  C   9.35851977282916     -1.63002238047931     -1.02828004436513
  H   9.72302355230137     -1.69946843314187     -2.06682099654945
  H   10.14991802865166     -2.06639509846554     -0.38878570534555
  C   9.14509186689001     -0.16161503552207     -0.62932113340739
  H   8.47477761087265      0.33260277647105     -1.35571351448801
  H   10.10256237835141      0.38761456349108     -0.64824168070246
  C   8.51727984598084     -0.05584499686338      0.77138202214044
  H   8.34083363927710      0.99129011566243      1.03932634573049
  H   9.21878677497372     -0.46330827510814      1.52339232598344
  H   5.03418259620044     -1.97280661948895     -0.14142525068204
  H   1.71789494559575     -0.41975097475846     -0.46368407429961
