96
Coordinates from ORCA-job ./opt_b3lyp_cdz
  C   -2.87466629416981     -3.47819261513569     -0.39299888503083
  H   -2.16067716035768     -3.51906600906603      0.44476771063642
  H   -3.88836086395127     -3.48718311737355      0.03389625037884
  H   -2.75793724659807     -4.39563291605088     -0.99387800565548
  C   -2.60986477668434     -2.22748313696862     -1.26043554414968
  N   -2.63878247865730     -0.99028427234156     -0.45791666068853
  C   -3.70285179934825     -0.27174503912671      0.02267920251739
  C   -4.98917981392528     -0.84471501423282      0.16576202423541
  C   -6.10510166582606     -0.13189065238155      0.64003288301705
  N   -7.34060064543736     -0.74719643157233      0.83528151694951
  C   -7.54454740496272     -2.17273002797197      0.58883470487648
  H   -8.27438155866676     -2.53295806210741      1.33913190467622
  H   -6.61424956129158     -2.72287978844204      0.77592105591263
  C   -8.10439619679219     -2.44461859110715     -0.81662765050062
  H   -7.35706264482317     -2.13946283735037     -1.57075888501522
  H   -8.27766084743250     -3.52686506691990     -0.94921878833433
  C   -9.40843411790794     -1.65815696269072     -1.02434020128652
  H   -9.76979773534453     -1.77116951842962     -2.06024392575524
  H   -10.19329859691504     -2.08516522279064     -0.37051031248771
  C   -9.22074416001199     -0.17325800301201     -0.67820143619127
  H   -8.55690267586217      0.30527121748342     -1.42076453782645
  H   -10.18747105855569      0.35857063740585     -0.71834504653464
  C   -8.59716739172981     -0.00358080727606      0.71865770171099
  H   -8.43541445485358      1.05654140627493      0.93951352588625
  H   -9.29631329912516     -0.38914595054398      1.48503758032676
  C   -5.92148321012752      1.24069304513268      0.97015986854848
  C   -4.67701661167652      1.81678172034851      0.83331899057116
  C   -3.53400774703072      1.11850742116065      0.37965608204591
  C   -2.28121331919727      1.86429142689003      0.27284751745487
  N   -1.12596462621368      1.18141510281034      0.09140418449425
  C   0.02838881812040      1.86014011839232     -0.00267033163968
  N   1.16979728005639      1.18670644473970     -0.08434971234034
  C   2.34924719752890      1.84983504912165     -0.27712678358822
  C   2.38107772199082      3.23627797390198     -0.38815637217942
  C   1.20126953181650      3.98327810992317     -0.22025328234661
  C   1.14128089761534      5.39026335234805     -0.22258490538802
  C   -0.06945463284367      6.03918783792576     -0.00670258326896
  C   -1.24309368762185      5.32213201279259      0.20637942115064
  C   -1.23243078389577      3.91428820597235      0.19965415796277
  N   -2.35241256521124      3.20700553785738      0.37215420770105
  N   0.00774817147033      3.27103134149013     -0.01357789483380
  H   -2.20633837047599      5.80192219242721      0.36975906725310
  H   -0.10109887472775      7.13184711709411     -0.00448948522816
  H   2.06852941310271      5.93918269646107     -0.38309517099477
  H   3.32328806053476      3.74902053908935     -0.56103957703045
  C   3.59033573156548      1.06011120135655     -0.36485234938641
  N   4.65971180228457      1.74543610852937     -0.81448481416374
  C   5.84389389788337      1.18107663153056     -0.94519109502356
  C   6.08967561605628     -0.18776244918955     -0.62878612303530
  C   4.99499933044472     -0.90988038715562     -0.13111402742764
  C   3.71690431551420     -0.32323526728766      0.02464769256620
  N   2.64378280360040     -1.00148614511912      0.53335558501014
  C   2.58323863346414     -2.26280146528529      1.29481362126943
  C   1.16076684714006     -2.31563539002460      1.88514371863210
  H   1.00815093000827     -3.25498631967386      2.43858138102992
  H   0.99360251456880     -1.47465071732329      2.57673957374618
  C   -1.17697031348883     -2.31899790196939     -1.82023185735415
  H   -0.95249179281622     -1.45528770282892     -2.46611692210130
  H   -0.43355251574059     -2.33387635456583     -1.00746090485074
  H   4.63183353897097     -2.27989932140149      2.14372556152008
  C   3.58283271610495     -2.28292288209232      2.47127152125697
  H   3.42664016305108     -3.18928495891324      3.07887191981537
  H   3.42984386482626     -1.40426971235766      3.11765753103812
  H   -1.05333540958281     -3.23757339050888     -2.41443472650137
  H   0.39721606626183     -2.25535108363981      1.09348218205708
  C   2.78516275475029     -3.49004973624303      0.37867294244054
  H   2.04370968740027     -3.48431210347048     -0.43571094280910
  H   3.78435531902732     -3.50928589209627     -0.08190151242765
  H   2.66374792973865     -4.42434770296655      0.95183204716989
  H   1.77580227776229     -0.46001718452937      0.46796264159726
  H   5.11742322405331     -1.95140815365226      0.14221370875548
  N   7.33352059082681     -0.76857448303351     -0.86192655720112
  C   7.58783114933842     -2.17623222194065     -0.55894741387938
  H   8.31857016780627     -2.54292608699966     -1.30424451925164
  H   6.67387845259000     -2.76443588119438     -0.70949474327041
  C   8.17273626958482     -2.36770782909899      0.84976160782025
  H   8.38413797424031     -3.43668360206821      1.02632859530756
  H   7.42392946273391     -2.05647824879012      1.60008467186845
  C   9.45165386160921     -1.52961579494563      1.00812497468433
  H   10.24384959095161     -1.95836519410213      0.36455008166610
  H   9.82646844914296     -1.58605266604166      2.04374020948828
  C   9.21242988270141     -0.06739135216051      0.60102152443890
  H   10.16187633082501      0.49581746184416      0.60586450625279
  H   8.54252611973364      0.42242631594845      1.33075314376895
  C   8.56876662285386      0.01889823352437     -0.79371829038219
  H   9.26778455617256     -0.38475346092117     -1.54997873922669
  H   8.37488358407624      1.06114653074898     -1.06822542742089
  H   6.63445150054725      1.82177942278825     -1.34140889883110
  H   -4.53818927174315      2.86559057358966      1.09393064056849
  H   -6.73696716387764      1.83730617619059      1.37527885303320
  H   -5.10752045753282     -1.88602449001081     -0.10722632289100
  H   -1.76539970302383     -0.45615733650979     -0.41912326105693
  C   -3.58194904607588     -2.17193436183400     -2.45872226758129
  H   -3.36826394965375     -1.28963790733714     -3.08269658427011
  H   -4.63492028410483     -2.11575832184669     -2.15023876477910
  H   -3.46129220365313     -3.07303921297066     -3.08230583059436
