78
Coordinates from ORCA-job ./opt_b3lyp_cdz
  C   -2.52580025446969      2.88511962423044     -0.20735216502374
  N   -2.52490929845214      1.44602561810259     -0.20615160029098
  C   -3.63875529406357      0.67002902745242     -0.31151538131653
  C   -4.91498230093461      1.27287526658611     -0.41121433566402
  C   -6.10224066888101      0.52744296325866     -0.52619368155095
  N   -7.34176838931353      1.14204762498228     -0.68329485489415
  C   -7.47865051029995      2.59472312813025     -0.76431978357972
  H   -8.31165529350967      2.80597436661550     -1.46195648576203
  H   -6.57908983471505      3.03038844745962     -1.21604857387872
  C   -7.80305858682566      3.22151695976492      0.60098987003985
  H   -7.93224519428955      4.31260715908033      0.49258775889929
  H   -6.95121594525758      3.06015537475090      1.28533581867163
  C   -9.07311925906909      2.58156797995095      1.18384143410105
  H   -9.94278858314708      2.88582642476009      0.56978592951446
  H   -9.26472802911224      2.95637794047504      2.20328630956096
  C   -8.97143833972495      1.04868740762905      1.18390670619772
  H   -8.20849524951732      0.72241654485987      1.91364016261746
  H   -9.92987304376751      0.59694938565582      1.49419839117717
  C   -8.57831753404515      0.51816673138084     -0.20634781633418
  H   -8.47316427442092     -0.57145979305034     -0.18551466489053
  H   -9.38076156930648      0.75030433582694     -0.93213961122231
  C   -5.99249590487095     -0.89356285716936     -0.52436748744733
  C   -4.75410063827113     -1.49076945805264     -0.41919895216942
  C   -3.54301764685444     -0.76904986935328     -0.30761287479975
  C   -2.29424244971139     -1.51664060738240     -0.20205676327326
  N   -1.12731453964462     -0.83381749705065     -0.09940262478341
  C   0.02571139844083     -1.51376592833350     -0.00261402727807
  N   1.16558171304959     -0.83963030591087      0.09764454910316
  C   2.35619525398998     -1.50581792095988      0.19829770753511
  C   2.40029513377074     -2.89606612955814      0.19670524834361
  C   1.21199414187849     -3.63984027911719      0.09240360744232
  C   1.15257096960682     -5.04672133843168      0.08263009486029
  C   -0.07284058639651     -5.69480578424906     -0.02500178476402
  C   -1.26026241971000     -4.97628852163815     -0.12484024308441
  C   -1.24793535839805     -3.56832647201902     -0.11897985244283
  N   -2.37686117858750     -2.86198352821471     -0.21313152981811
  N   0.00600288725043     -2.92496460802639     -0.00896794141833
  H   -2.23403265805380     -5.45501705864381     -0.21020834386528
  H   -0.10502857130529     -6.78742257599483     -0.03142172266435
  H   2.09000000028904     -5.59611497909241      0.16147571346635
  H   3.35391114960698     -3.41067752079979      0.27631561601680
  C   3.59236933652762     -0.71480876721708      0.30800115014193
  N   4.72862183002569     -1.43337303450338      0.40199438446182
  C   5.90904403833804     -0.85547692518793      0.50846128040515
  C   6.08725944208188      0.56105919819103      0.53106017196375
  C   4.91811000143301      1.32878398047521      0.42850443307343
  C   3.64435249481557      0.72306944096756      0.32443625282183
  N   2.51687274064478      1.47864515352493      0.23130647904182
  C   2.49770478250819      2.91851490498979      0.23898397824152
  H   1.45409705981047      3.25752829202653      0.17124574248133
  H   3.04993097145610      3.35742846695364     -0.61532693322412
  H   2.92973052312357      3.34286231387878      1.16623859108767
  H   1.65188065218580      0.93570457426028      0.14630087036518
  H   4.97282108918062      2.41402016894166      0.41001707393014
  N   7.34805377834093      1.12380669671941      0.70081483633103
  C   7.53124084741391      2.57259857888872      0.77541674401680
  H   8.37710949467056      2.75911318894706      1.46383648120805
  H   6.65010504787196      3.03709544266921      1.23583547326138
  C   7.85874729698195      3.18523085018705     -0.59563950433755
  H   6.99377235592587      3.05158472577807     -1.26959212027388
  H   8.02454284293404      4.27160570015659     -0.49123835260132
  C   9.09960182819168      2.50298479461527     -1.19346836728775
  H   9.98649126696340      2.77858265492976     -0.59082159182457
  H   9.29030150304917      2.87090125402097     -2.21543781283729
  C   8.94753206799858      0.97419591763141     -1.19148445606609
  H   9.88614948041859      0.49098077957852     -1.51412019025038
  H   8.16518491874114      0.67290354628352     -1.91146150864936
  C   8.55687977293087      0.45810993716732      0.20446814937732
  H   8.41675615279640     -0.62796298119602      0.19002108933776
  H   9.37503447541596      0.66554640693017      0.91943675168900
  H   6.76174113287253     -1.53088829515858      0.60641714798839
  H   -4.67704565219437     -2.57756550013817     -0.43128346674421
  H   -6.87117772987347     -1.52424941531758     -0.64789070548599
  H   -4.96243698342408      2.35698813397093     -0.37002919533267
  H   -1.64996461830748      0.91951252340055     -0.12864079876462
  H   -3.08569754925397      3.31296754068329      0.64756603790969
  H   -2.96285537983711      3.30823306297516     -1.13289219992000
  H   -1.48685803131439      3.23863787147398     -0.13597402966611
