90
Coordinates from ORCA-job ./opt_b3lyp_cdz
  C   -2.73466894533086      3.42721066660215      0.15765777086178
  H   -3.64271654514642      3.21574262491330      0.74363396565479
  H   -2.78129392429706      4.47519083580083     -0.18460179497453
  H   -1.86983664330827      3.32467461434480      0.83412044560905
  C   -2.60474306708838      2.46407791317625     -1.03569486538661
  N   -2.61460853676640      1.06750504625661     -0.62610520714985
  C   -3.71658907198089      0.28104320064299     -0.45898996959378
  C   -5.01644742987016      0.83882192437767     -0.53763484039339
  C   -6.18845774304849      0.07230721758022     -0.41491736109474
  C   -6.04209881526305     -1.32647972489375     -0.18294958438493
  C   -4.78403569711803     -1.87991759020847     -0.09409377381307
  C   -3.58556546282039     -1.13471808655985     -0.21176423231386
  C   -2.32061973692025     -1.85478685754566     -0.11455782243470
  N   -1.15401906321284     -1.14696089812783     -0.08566414368968
  C   0.00002819953249     -1.80975595634653      0.00153479769799
  N   1.15464284052658     -1.14792609206187      0.08848871745040
  C   2.32065516318151     -1.85670217386600      0.11769454118170
  N   2.38225864067084     -3.19942038886468      0.05707830888502
  C   1.23806749584562     -3.88827707326596      0.02156537374585
  C   1.21338424934481     -5.29414962240296      0.01452693673514
  C   -0.00172642271450     -5.97307267768446      0.00234319719994
  C   -1.21626333097504     -5.29313290731817     -0.01005911261654
  C   -1.23975240489847     -3.88723742907459     -0.01757440445577
  N   -2.38336062363399     -3.19742264500504     -0.05324439129641
  N   -0.00055987369190     -3.21801642510617      0.00185323814542
  H   -2.17804349536506     -5.80251235013831     -0.02541772575455
  H   -0.00218975441803     -7.06621685930973      0.00251192518405
  H   2.17473469839513     -5.80433492234338      0.03006943709140
  C   3.58619680516000     -1.13762248422838      0.21438597620070
  C   4.78402401001961     -1.88390655749021      0.09706379792838
  C   6.04256700075753     -1.33147146114901      0.18549192855292
  C   6.19012257496931      0.06732187498648      0.41660514986493
  N   7.45491141907098      0.63174334609495      0.55417503116306
  C   8.62267651298435      0.08796275535033     -0.14394061564545
  H   9.49645493449466      0.17716134627763      0.52907698661948
  H   8.48361556902650     -0.97893782770713     -0.34677693260874
  C   8.89800072762079      0.85343765874734     -1.45045874569357
  H   9.80899973170864      0.45244987105931     -1.92812188244444
  H   8.06016713492706      0.67207120157669     -2.14773174346052
  C   9.04467523058080      2.36027460461625     -1.18987281764866
  H   9.97612265288613      2.53914634667403     -0.61873928546263
  H   9.15151508493282      2.90862075354829     -2.14080131525673
  C   7.85377016199831      2.90153488483762     -0.38303896326320
  H   6.93755565000007      2.87503902267379     -0.99951668505379
  H   8.02395988323149      3.95414811085929     -0.09702303495467
  C   7.64025546205538      2.04542398412178      0.87548725394901
  H   6.79968230124672      2.40402339652914      1.48220879458483
  H   8.54050566732713      2.11934709464698      1.51515659697461
  C   5.01877125610800      0.83491008562856      0.53898904673720
  C   3.71844954284670      0.27819202454959      0.46079755407139
  N   2.61719113498937      1.06570152652387      0.62761844292749
  C   2.60866075855734      2.46262479879633      1.03599468110145
  H   3.46961424107423      2.62571461050913      1.70891154976212
  C   1.33306572032825      2.73275494440446      1.84168081152861
  H   1.29321573609665      3.78300148691539      2.17173286145929
  H   1.28458904615806      2.08404651578374      2.73000605870297
  H   0.43508071953806      2.53728983543129      1.23094098278764
  C   2.73992215698551      3.42449421149818     -0.15822902057982
  H   1.87547556658190      3.32169401990920     -0.83511446141429
  H   2.78697501847812      4.47279994620487      0.18297505796270
  H   3.64820184009218      3.21188952048645     -0.74343100529506
  H   1.72731774910094      0.58121672423965      0.47768813803129
  H   5.09931029232801      1.91002091806131      0.66311213233708
  H   6.91059142689516     -1.98485369383562      0.11709080380276
  H   4.67813320153629     -2.95656312296357     -0.06068599834886
  H   -4.67905770550954     -2.95256897198830      0.06430591080656
  H   -6.91068789756330     -1.97907378425065     -0.11419280013659
  N   -7.45274944782129      0.63772374735344     -0.55291693827500
  C   -7.63685655613258      2.05135441405465     -0.87515276290796
  H   -6.79588693706334      2.40885225578995     -1.48197352723075
  H   -8.53694546699581      2.12564005562260     -1.51501035072218
  C   -7.84982975063403      2.90844574063915      0.38279092569506
  H   -6.93372874440506      2.88157637788907      0.99942276026387
  H   -8.01908827677133      3.96101757613220      0.09607084710244
  C   -9.04130803602461      2.36870331444847      1.18979477779225
  H   -9.97251890210891      2.54797263276292      0.61840028601148
  H   -9.14784063085177      2.91775607161755      2.14034961145397
  C   -8.89591526202087      0.86191691625785      1.45138258573838
  H   -8.05832962999413      0.68032002412438      2.14889327918771
  H   -9.80731153647280      0.46198802191358      1.92917507550875
  C   -8.62104323149108      0.09535625775752      0.14540734974622
  H   -8.48286235965677     -0.97151965166878      0.34897664595696
  H   -9.49466253749016      0.18480615860300     -0.52778565375126
  H   -5.09601063036824      1.91394928675132     -0.66226349890473
  H   -1.72517533663638      0.58238446518557     -0.47572244475606
  H   -3.46574403017036      2.62737954013578     -1.70849612160802
  C   -1.32910245074545      2.73220646606396     -1.84196123915112
  H   -0.43116589979958      2.53630771018318     -1.23130096196000
  H   -1.28826241001733      3.78214381443598     -2.17287259800730
  H   -1.28156833767947      2.08269854583789     -2.72975477236455
