91
Coordinates from ORCA-job ./opt_b3lyp_cdz
  C   -1.23787864663311     -2.20767030501219     -2.40084223995522
  H   -1.26727768369459     -1.42332017052838     -3.17303368816080
  H   -1.15814216062182     -3.18715359703087     -2.89871092824376
  H   -0.32257733561077     -2.05789612676308     -1.80216981789793
  C   -2.48564226019741     -2.14724682293631     -1.51180710557980
  N   -2.54365067051272     -0.83771868081862     -0.88105909159598
  C   -3.67064055771046     -0.15804860053338     -0.51399631567090
  C   -4.94140742279294     -0.77832713390921     -0.58860999397983
  C   -6.13754880618068     -0.12510494320102     -0.24270135742255
  N   -7.38035959050626     -0.74172029439469     -0.38345189236923
  C   -8.50301441000613     -0.41924964668501      0.50050424224424
  H   -9.43189455986231     -0.45399039729980     -0.09991791799753
  H   -8.40874281196480      0.60352613341569      0.88049719930688
  C   -8.60545831019942     -1.42026042885425      1.66508821762565
  H   -7.71531890058388     -1.30353691838798      2.30935814969562
  H   -9.48691558399932     -1.17816092043050      2.28432217980651
  C   -8.69115191280522     -2.86407120416072      1.14715744686802
  H   -9.66235162907722     -3.00678650872713      0.63507204577677
  H   -8.67371622983003     -3.57818560733939      1.98747624754459
  C   -7.55590727085106     -3.16589884911766      0.15593955246613
  H   -6.58739827827237     -3.18454024607171      0.68681316045267
  H   -7.69475832285456     -4.16057647296193     -0.30252521978504
  C   -7.51279373458584     -2.08713888791157     -0.93828048360582
  H   -8.46361655557472     -2.11440525238761     -1.50437797050740
  H   -6.71399809848110     -2.27021429138251     -1.66768884943604
  C   -6.04004737792532      1.21186808954138      0.23161151304585
  C   -4.80554014537512      1.82861078515781      0.29879760760455
  C   -3.58928296605417      1.21198038431521     -0.06825870093322
  C   -2.34647404705288      1.99166669502646     -0.03472096513387
  N   -1.15908942927133      1.31024842421216      0.00613294625367
  C   -0.00184110383229      1.96050773035552      0.04343588656482
  N   1.13828906338092      1.25840603207054      0.13525807319393
  C   2.32463804520467      1.91433488793135      0.13322538568455
  N   2.44094714204915      3.25401170234148      0.02746363266463
  C   1.32624751282480      3.98457141116227     -0.02836186232981
  N   0.05331636731309      3.37051590118547     -0.00673358246808
  C   -1.13916012749080      4.10807557552703     -0.05868219600582
  C   -2.34761616862557      3.38807593546590     -0.05922401519234
  H   -3.26676440231246      3.96258103473877     -0.14294252176227
  C   -1.04896087510647      5.51161288706985     -0.12744399893271
  C   0.19554901733992      6.13251240794270     -0.14969826762185
  C   1.37104507120400      5.39038484900773     -0.10254726878407
  H   2.35880342287289      5.84733184591639     -0.11511582276311
  H   0.25138901595223      7.22280388083668     -0.20491259499366
  H   -1.97610262195152      6.08255429320389     -0.16831655112677
  C   3.55976148899479      1.14511084453170      0.24805475301128
  C   4.78934991118921      1.83082773479366      0.10529768346926
  C   6.02116407567765      1.22167718846478      0.20888594909111
  C   6.10270863201357     -0.17455167053127      0.48195462939694
  C   4.89760691432345     -0.88305462271035      0.62985383711075
  C   3.62499690395400     -0.26757571889875      0.53694479624315
  N   2.48594509763406     -0.99377061145207      0.72580118982006
  C   2.40111240976092     -2.36961931326226      1.19133310036883
  H   3.25924363901982     -2.55802709116471      1.86147321033890
  C   1.11987058173965     -2.52987311145708      2.01796116104195
  H   0.22938801728842     -2.29434654941345      1.40996549578627
  H   1.01554593463255     -3.56383602926998      2.38362566236304
  H   1.12414718918390     -1.85050018575618      2.88443394015382
  C   2.45915073309596     -3.38410577094245      0.03566830097021
  H   3.36738391475739     -3.24587847394509     -0.57173373895534
  H   2.45412278528500     -4.41920537230334      0.41813169061323
  H   1.58913927063700     -3.26061098150056     -0.63099840621058
  H   1.62277431685464     -0.46172986750671      0.57241045358401
  H   4.92770260782350     -1.95697697062615      0.78567193542312
  N   7.34121000243845     -0.79314391800663      0.63481664014208
  C   7.46137847988546     -2.19814615512100      1.01739597915294
  H   6.60726366720790     -2.48876980116563      1.64144444618183
  H   8.36032050450706     -2.28697405054683      1.65732869134250
  C   7.62799068387938     -3.11942985068716     -0.20154339251109
  H   6.71053475921374     -3.07895322294563     -0.81539392281183
  H   7.75144459321556     -4.16473674659643      0.13156385030485
  C   8.83802020941842     -2.67081483771587     -1.03624264922111
  H   8.91503145471622     -3.26639338013081     -1.96135178347716
  H   9.76335503932291     -2.86565177139092     -0.46033510197431
  C   8.75839082971827     -1.17240929119028     -1.36528083983913
  H   9.68369236900821     -0.83591346472837     -1.86486530027637
  H   7.92535264927430     -0.98537709437953     -2.06681233342584
  C   8.52625679857931     -0.33548193219813     -0.09443813884435
  H   9.40120953470231     -0.43030489995067      0.57655893169132
  H   8.43128108987926      0.72555038839146     -0.34775053230136
  H   6.91977920160304      1.83014369887498      0.12170334015312
  H   4.73254187670392      2.90220273443418     -0.08426587666747
  H   -4.77567917140881      2.85203369254459      0.67604661976884
  H   -6.92566290767955      1.77672630317610      0.51665136544900
  H   -4.97367961281272     -1.82063410064854     -0.88989139005932
  H   -1.67062627116349     -0.35404126638075     -0.65236513436480
  H   -3.37066921593740     -2.24836254496245     -2.16593345271302
  C   -2.50504032817876     -3.29978089183100     -0.49135430252519
  H   -2.52528995199945     -4.27779903981236     -1.00204170633411
  H   -1.60676338179732     -3.26598674749902      0.14741256130612
  H   -3.38530993619167     -3.23735143086191      0.16732064909343
