91
Coordinates from ORCA-job ./opt_b3lyp_cdz
  H   4.02876935198806     -1.63081619186697      0.19298265420983
  N   4.99141257340031     -1.26737186536153      0.23907701620112
  C   5.01667020525192      0.11560383127966      0.26397887918219
  C   6.23156825995265      0.81953271646175      0.32414908450323
  C   6.29901046893051      2.22506422819591      0.35385832847335
  N   7.50981232707869      2.88565249698014      0.47143664763072
  C   7.70859721395095      4.25632139900900     -0.00421979972082
  H   8.35173731193036      4.78188313370262      0.72651240465955
  H   6.75610387779007      4.79586572145277     -0.03467811507397
  C   8.38227650552269      4.26869465656478     -1.38787069329737
  H   7.68531658463525      3.82699721595386     -2.12281968066281
  H   8.56281875531366      5.31220573602157     -1.69965503297899
  C   9.69751472794981      3.47497647101905     -1.37044856274446
  H   10.43919929772631      4.02014694316725     -0.75537440478682
  H   10.12163718979709      3.41103936269966     -2.38638525044521
  C   9.49296363353719      2.07117163996337     -0.77958542227995
  H   10.46158504950514      1.55684073213815     -0.65654773230922
  H   8.88314582243490      1.45399883204172     -1.46271924654843
  C   8.78077309729603      2.16602278356683      0.57798371884821
  H   8.61841794085950      1.17914914112317      1.02542224163503
  H   9.41714514449015      2.73402569202682      1.28281302710816
  C   5.06830184463509      2.94201372049479      0.30140284625933
  C   3.87524183426028      2.25801459764838      0.23557431261650
  C   3.76424076906245      0.84433621608023      0.21017222367331
  C   2.43839480886599      0.23600657674193      0.13454442621592
  N   2.36805369123726     -1.13726182029294      0.13067858306579
  C   1.21838499534823     -1.77165766968234      0.06607953520993
  N   1.20375185685676     -3.12500872887597      0.06391563177482
  C   -0.00018774323589     -3.68990199747441     -0.00048150202377
  C   -0.00027024658121     -5.14832446644795     -0.00055709484428
  N   -0.00032139579561     -6.31026526840332     -0.00089710657394
  N   -1.20405148449331     -3.12486302791129     -0.06507306100561
  C   -1.21849130934311     -1.77151205416668     -0.06771958834929
  N   -2.36807907556004     -1.13697805826198     -0.13243977769206
  C   -2.43821722389709      0.23629475880157     -0.13744328079272
  C   -1.24611807355856      0.97358222510420     -0.06979530137046
  C   0.00011361046010      0.33063025936420     -0.00176832223179
  C   1.24647526786459      0.97343514808946      0.06541894986346
  H   1.23354156625196      2.05938801308761      0.05864792502272
  N   -0.00000507138998     -1.07243875615426     -0.00097772582668
  H   -1.23290487666930      2.05954211643241     -0.06518724618443
  C   -3.76401371043097      0.84475232035625     -0.21289721631911
  C   -3.87507576934367      2.25847344158886     -0.23492449076518
  C   -5.06804928907657      2.94258930741855     -0.30118570734092
  C   -6.29862849923134      2.22573238519622     -0.35786351821782
  N   -7.50925919934967      2.88646221883460     -0.47639035495528
  C   -7.70882832312048      4.25647423496705      0.00084115755230
  H   -6.75658393901435      4.79637379731575      0.03261771221333
  H   -8.35156896477451      4.78265882430149     -0.72978296417617
  C   -8.38367021590969      4.26689694052155      1.38393250187019
  H   -7.68725707520064      3.82435885413049      2.11889256537929
  H   -8.56470825138374      5.30994716363119      1.69696810017990
  C   -9.69874304595118      3.47293596901561      1.36426656203365
  H   -10.44002145627601      4.01887498501818      0.74938434988390
  H   -10.12369443430230      3.40742909518057      2.37975677336809
  C   -9.49348627284728      2.07002213540246      0.77151444576308
  H   -8.88419440753797      1.45192071412730      1.45427877814977
  H   -10.46193905646272      1.55575697327112      0.64688309964207
  C   -8.78007993277032      2.16691409085298     -0.58527980449241
  H   -8.61730430338730      1.18071555594205     -1.03404299346193
  H   -9.41579676714355      2.73594891711985     -1.28985382277347
  C   -6.23115474911536      0.82013374680088     -0.33100275859233
  C   -5.01636102383297      0.11611530636403     -0.26999627613931
  N   -4.99115820326884     -1.26690395060626     -0.24754570664240
  C   -5.98348880134890     -2.23324497860358     -0.29708128204431
  N   -7.28353335138958     -1.90211175917850     -0.36142096662269
  C   -8.18236936434189     -2.89998674792337     -0.40556805667105
  C   -7.85797863538825     -4.25191811930234     -0.38847789544889
  C   -6.49682392607163     -4.59180484792468     -0.32042516751592
  C   -5.54757594630319     -3.58481226379470     -0.27410721029192
  H   -4.47974694286980     -3.81222135151894     -0.22143389254028
  H   -6.18229403511528     -5.63827222563521     -0.30408819450351
  H   -8.63818706875304     -5.01386790938646     -0.42659776005185
  H   -9.23051243138725     -2.58460304862125     -0.45750838277048
  H   -4.02865666125043     -1.63042210453220     -0.19910497607408
  H   -7.12719675371329      0.21128864134885     -0.33951560949532
  H   -5.04312975927817      4.02979381764862     -0.34463117575935
  H   -2.96658061732214      2.85912755634621     -0.20976792542469
  H   2.96661829193448      2.85863077626688      0.21433155777390
  H   5.04348320638214      4.02909155134989      0.34816938878403
  H   7.12767716643802      0.21073962094096      0.32958187447287
  C   5.98386877888976     -2.23378890015567      0.28441182728049
  N   7.28409276314224     -1.90274495863444      0.34547916799778
  C   8.18305649460524     -2.90067701702975      0.38552557798928
  C   7.85861918542968     -4.25258360626344      0.36736377361158
  C   6.49727128386092     -4.59237578228647      0.30279282834692
  C   5.54788999782689     -3.58532121488984      0.26072625933386
  H   4.47991153832680     -3.81265973841207      0.21085104304695
  H   6.18269547963071     -5.63881961472605      0.28584279589853
  H   8.63893529278375     -5.01458593594028      0.40207535663282
  H   9.23134455099433     -2.58536145602767      0.43489114461904
