16
Coordinates from ORCA-job ./opt_b3lyp_cdz
  C   0.17537113842669      9.76542704136191     -3.65552444141914
  C   -1.04672992287799      9.80964370259607     -2.98294997611827
  C   -1.64956802417098      8.61633720821514     -2.57249041301988
  N   -2.84693924378718      8.58366344058980     -1.90856870504926
  N   -3.35707198333714      7.43748915808042     -1.55254792189611
  N   -2.77270915197440      6.26656878319299     -1.79972003321451
  C   -1.59382816460663      6.23977315453234     -2.44933171613190
  N   -0.99199084627840      5.06309737387578     -2.70545925320766
  N   0.17393683425728      5.05096988173506     -3.34906308389729
  N   0.78109991454504      6.13136810702052     -3.75488807161931
  C   0.21473212808620      7.35623254840940     -3.52126304673892
  C   0.81156201519031      8.55357279577341     -3.92867392810451
  N   -0.99822646207811      7.42669240604517     -2.85542956478319
  H   0.64386114304090     10.69901109126018     -3.97486747201005
  H   -1.56648670310945     10.73908826010217     -2.75585981523892
  H   1.76460732867388      8.48757504720964     -4.45110255755110
