97
Coordinates from ORCA-job ./opt_b3lyp_cdz
  H   4.03100324308755      1.35265639925975     -0.18692495096372
  N   4.99280983652327      0.98817557758746     -0.23275775025674
  C   5.01746864051475     -0.39408620019211     -0.25556404069932
  C   6.23276677902959     -1.09805078881310     -0.31319935272424
  C   6.30054329113210     -2.50326998864532     -0.34054157577299
  N   7.51186045751987     -3.16384816038849     -0.45619421219768
  C   8.78240424408289     -2.44310237487427     -0.56048177630696
  H   8.62040577151881     -1.45763148874102     -1.01115784683550
  H   9.42181604979728     -3.01242306425624     -1.26149305906400
  C   9.48984209727223     -2.34332427212969      0.79923279158844
  H   8.87707769973564     -1.72453635598273      1.47821806385061
  H   10.45834922795650     -1.82833307159583      0.67795387140972
  C   9.69379623010628     -3.74504566518022      1.39527171810823
  H   10.11447249710437     -3.67753076150583      2.41243810094012
  H   10.43811550074582     -4.29148085064122      0.78447312625802
  C   8.37929737023189     -4.54008132433523      1.41064680724319
  H   8.55977502141606     -5.58239359906535      1.72655450808591
  H   7.67926727162012     -4.09668879123712      2.14164634937642
  C   7.71070643610404     -4.53269089351528      0.02449748542229
  H   6.75885036134853     -5.07354476662907      0.05286240344547
  H   8.35728435197471     -5.05958334233179     -0.70224687274408
  C   5.07002929611848     -3.22089392910697     -0.28791134772034
  C   3.87665934487200     -2.53728951148271     -0.22469078399331
  C   3.76503271580330     -1.12348166134875     -0.20220162507901
  C   2.43903365960574     -0.51579147597987     -0.12993140954762
  N   2.36828795275588      0.85770080013868     -0.12546052534171
  C   1.21868684075813      1.49171095321091     -0.06363468922628
  N   1.20391907236856      2.84546938356998     -0.06126549129347
  C   -0.00021852068878      3.40983293561837      0.00032517363515
  C   -0.00033617096150      4.86851225819735      0.00028327615344
  N   -0.00047858737741      6.03049509968582     -0.00068288805267
  N   -1.20426138157224      2.84527947842671      0.06199151101032
  C   -1.21882046536356      1.49151808656847      0.06425350550802
  N   -2.36832188975487      0.85732572007220      0.12603336754017
  C   -2.43885086183586     -0.51617797479957      0.13022630973358
  C   -1.24640781238678     -1.25333599316182      0.06459092858804
  C   0.00009211011417     -0.61044409540381      0.00006731150738
  C   1.24668260622262     -1.25313508144365     -0.06466611481417
  H   1.23365245554482     -2.33912120791762     -0.05943978177347
  N   -0.00001276512616      0.79277696614490      0.00026213658047
  H   -1.23323842151406     -2.33931818625112      0.05883104792086
  C   -3.76476071710171     -1.12404810395894      0.20249381726753
  C   -3.87620667188562     -2.53786072491427      0.22564226688879
  C   -5.06952198971847     -3.22157711043338      0.28866441819454
  C   -6.30014607862122     -2.50406939906793      0.34033591989047
  N   -7.51144077596300     -3.16474100493131      0.45568646348416
  C   -8.78207668269253     -2.44408077075979      0.55938810865259
  H   -9.42164779042743     -3.01326061729654      1.26037090994440
  H   -8.62028146595504     -1.45847107998296      1.00984045464694
  C   -9.48913379547191     -2.34473029925183     -0.80055357581979
  H   -8.87623919618292     -1.72606044601760     -1.47952807737153
  H   -10.45772686648414     -1.82980463132811     -0.67968305717104
  C   -9.69277343324594     -3.74662971222004     -1.39627694083582
  H   -10.11317842180377     -3.67943184755444     -2.41357651679978
  H   -10.43719739489366     -4.29298794306184     -0.78553712143515
  C   -8.37817947328888     -4.54151463310657     -1.41108387660055
  H   -7.67799508823564     -4.09821658199026     -2.14199284126649
  H   -8.55844460273768     -5.58392529308796     -1.72678932529739
  C   -7.70997334604902     -4.53372032077448     -0.02475013597489
  H   -8.35667158613136     -5.06055668272399      0.70192975960497
  H   -6.75802657946739     -5.07443158038548     -0.05276018690626
  C   -6.23253094835341     -1.09885428661917      0.31247297321403
  C   -5.01728260911605     -0.39477311717428      0.25514125112671
  N   -4.99268110762944      0.98749106663253      0.23194950287219
  C   -5.98677146371605      1.95361370223768      0.27777781717046
  N   -7.28530002117100      1.62198461151886      0.33800609519806
  C   -8.17423121084907      2.63053355927229      0.37818502427177
  C   -7.84014570273259      3.97707896116144      0.36092614067179
  C   -6.47578190853550      4.33404699414183      0.29692418967216
  C   -5.54652759112336      3.30349073154466      0.25520934897645
  H   -4.47552872718853      3.52005492917899      0.20567685154116
  C   -6.05196958046717      5.78074090583013      0.27564507949105
  H   -6.40129095958576      6.30542463785469      1.18106742535710
  H   -4.95865065027610      5.88454724118679      0.22008602555334
  H   -6.49152108582430      6.30587728323962     -0.58926383229434
  H   -8.62062375752550      4.74056352000658      0.39598542838754
  H   -9.22589362891018      2.32664208939328      0.42699855553178
  H   -4.03085123311998      1.35198641373103      0.18680567151859
  H   -7.12820107527272     -0.48918188720119      0.31742024986700
  H   -5.04518709572528     -4.30875709886013      0.33377842250546
  H   -2.96768201610647     -3.13868246660984      0.20446745654433
  H   2.96823123547374     -3.13822453476229     -0.20264275040529
  H   5.04579214086270     -4.30810267575144     -0.33235535551998
  H   7.12835767933082     -0.48826490775449     -0.31880442788453
  C   5.98685625511814      1.95429069398356     -0.27953123557027
  N   7.28533250918348      1.62262714963445     -0.34066175011404
  C   8.17424401237497      2.63115550467772     -0.38174952215150
  C   7.84018582739384      3.97771050958166     -0.36454898864260
  C   6.47587410928250      4.33471240275165     -0.29959145601759
  C   5.54664018821078      3.30417659395018     -0.25693556462634
  H   4.47568190590164      3.52076250482928     -0.20662785291095
  C   6.05209055420190      5.78141673781604     -0.27834514566772
  H   4.95882370564985      5.88524561421126     -0.22180945868797
  H   6.40057153176053      6.30582662875224     -1.18425102810469
  H   6.49244487553497      6.30681510712845      0.58599613308652
  H   8.62064649633034      4.74117722700478     -0.40037903396711
  H   9.22586669485671      2.32723822721398     -0.43129202573322
