97
Coordinates from ORCA-job ./opt_b3lyp_cdz
  H   -4.03213967658056      1.52252716002113     -0.17496560118749
  N   -4.99393156331663      1.15804993473049     -0.22389164902456
  C   -5.01828092783690     -0.22458588015179     -0.23332430694060
  C   -6.23301782785352     -0.93019831325873     -0.28449546491616
  C   -6.30006791623084     -2.33591389265341     -0.29620954291461
  N   -7.51118224631198     -2.99897158425619     -0.40378487698311
  C   -8.78402627709578     -2.28052029963691     -0.49289102604393
  H   -8.63000329090291     -1.29507151798308     -0.94625948606305
  H   -9.43159036659133     -2.85138495203571     -1.18499098263225
  C   -9.47346811680176     -2.18067029272635      0.87620598286266
  H   -8.85131622862589     -1.56158084505750      1.54643073066673
  H   -10.44400502478577     -1.66647470787334      0.76793478695183
  C   -9.66840319538755     -3.58206052264598      1.47622212005193
  H   -10.07485768538479     -3.51370319173786      2.49907633473791
  H   -10.42088989349154     -4.12923018056295      0.87625321515372
  C   -8.35342402292880     -4.37653354742757      1.47389574830720
  H   -7.64371404594916     -3.93301829373446      2.19539254887768
  H   -8.52946854986304     -5.41891219566520      1.79196651726532
  C   -7.70423555232904     -4.36815512115957      0.07868345980855
  H   -6.75315239747316     -4.91076860687190      0.09174414451333
  H   -8.36187997675720     -4.89285727183590     -0.63957312145654
  C   -5.06903080961495     -3.05153506209462     -0.23527902177656
  C   -3.87618618288020     -2.36612100411845     -0.17991115859297
  C   -3.76540635475824     -0.95240928881966     -0.17329161485310
  C   -2.43910719555810     -0.34336643253269     -0.10954652994837
  N   -2.36919816531512      1.02982204780699     -0.10465312847029
  C   -1.21906975144787      1.66439341806972     -0.04887759597803
  N   -1.20450117575089      3.01771681038771     -0.04587546187441
  C   -0.00026389525489      3.58268681195806      0.01170726310245
  C   -0.00042770003537      5.04116187794115      0.01352301581431
  N   -0.00055290466051      6.20310120124977      0.01486757644254
  N   1.20410348430194      3.01786271231492      0.06785753212191
  C   1.21901290979652      1.66453984426047      0.06724621299078
  N   2.36929294574059      1.03011367403203      0.12139284104321
  C   2.43958542689430     -0.34306284770847      0.12188212810751
  C   1.24708870596345     -1.08039042078979      0.06236765923403
  C   0.00026308507336     -0.43752368730612      0.00575593744594
  C   -1.24635956710299     -1.08054865156845     -0.05325278183294
  H   -1.23265131516644     -2.16649889013047     -0.05256505269827
  N   0.00006053934640      0.96541154166437      0.00820782618682
  H   1.23374478038184     -2.16633113882482      0.05685092476018
  C   3.76602196399373     -0.95195643683348      0.18429179956521
  C   3.87689962145157     -2.36568481696630      0.19144633817506
  C   5.06992816307605     -3.05092945874864      0.24463513264094
  C   6.30100444995330     -2.33511738217636      0.30225802645946
  N   7.51238586667328     -2.99819917503716      0.40713242054631
  C   7.70487054677495     -4.36647025662798     -0.07816238648079
  H   6.75350134150145     -4.90857761686079     -0.09212164181217
  H   8.36261208682158     -4.89296382406279      0.63870461441654
  C   8.35331144311687     -4.37230099772074     -1.47375587842338
  H   7.64319336725104     -3.92745200443247     -2.19403292097593
  H   8.52908152645337     -5.41412370541878     -1.79379341050967
  C   9.66829394906164     -3.57786998485615     -1.47554857026441
  H   10.42113614293615     -4.12596559433881     -0.87687079435465
  H   10.07416165402708     -3.50788691473346     -2.49852661943641
  C   9.47358714795700     -2.17746072688415     -0.87321229099623
  H   8.85083798104119     -1.55744746303326     -1.54202810286216
  H   10.44410408449456     -1.66325321985982     -0.76484146014842
  C   8.78516358050151     -2.27965283319997      0.49620685851393
  H   9.43342560861893     -2.85148910308863      1.18687484597694
  H   8.63119327108120     -1.29497306459052      0.95129589840634
  C   6.23385158222332     -0.92944791681416      0.29058516602531
  C   5.01889036534153     -0.22396920316004      0.24219537597619
  N   4.99432908215702      1.15865477150539      0.23326743139956
  C   5.98596685650005      2.12689585582234      0.29050974460782
  N   7.28376843534664      1.79791071640108      0.35601545584751
  C   8.20317649684366      2.78416881113354      0.40981520176127
  C   7.85797973474576      4.13590697706514      0.39840864695864
  C   6.49799305934559      4.47724051930976      0.32907630078958
  C   5.54465887246522      3.47619031935584      0.27445107311676
  H   4.47732935559296      3.70403544689323      0.22054205857763
  H   6.18974102867826      5.52570670412075      0.31824824740799
  H   8.63017627093747      4.90586166536834      0.44245385276929
  C   9.64135018789658      2.33445073219332      0.48567902854277
  H   9.80693812884577      1.72844846539017      1.39239692038789
  H   9.89045086283166      1.69628616568064     -0.37844588600916
  H   10.33646738474639      3.18659715517567      0.50433970037627
  H   4.03232087023792      1.52303357674777      0.18795736656669
  H   7.12907802557755     -0.31961493872434      0.30327377766876
  H   5.04435632894039     -4.13849770907922      0.27496278365375
  H   2.96829320809623     -2.96598405623409      0.16272178299660
  H   -2.96764477807796     -2.96635849203227     -0.14805203796655
  H   -5.04312098016679     -4.13911775579507     -0.26416101028431
  H   -7.12822359853081     -0.32040085876060     -0.29938675129428
  C   -5.98553813125646      2.12618021896352     -0.28346374994472
  N   -7.28307675404149      1.79707135905008     -0.35344177901077
  C   -8.20242644058391      2.78328080834956     -0.40937257087848
  C   -7.85745253311978      4.13504581576236     -0.39572154512336
  C   -6.49773812910492      4.47650132170609     -0.32170728707114
  C   -5.54446382776962      3.47552397494815     -0.26486060511366
  H   -4.47734907412941      3.70348062588468     -0.20731877263573
  H   -6.18963959239342      5.52499135907716     -0.30900967491823
  H   -8.62960963683562      4.90493063950358     -0.44162889992185
  C   -9.64031060439808      2.33345545109724     -0.49001403208270
  H   -9.89270103458958      1.69664740952281      0.37418063596743
  H   -10.33536796918647      3.18555234547142     -0.51257212775869
  H   -9.80240037070281      1.72603065386139     -1.39639501484869
