99
Coordinates from ORCA-job ./opt_b3lyp_cdz
  H   4.02479293533567      1.14047079790206     -0.14833726081555
  N   4.98787200800574      0.77598378571438     -0.11669532081661
  C   5.02034025029284     -0.59820395569879     -0.26281294743746
  C   6.23853900766441     -1.30033071133077     -0.27289319793050
  C   6.31272021895215     -2.69665658841127     -0.42909247896346
  N   7.53220244769746     -3.35152938410327     -0.49332178048181
  C   7.68521655354203     -4.75983695561614     -0.12182807260493
  H   6.73870588014578     -5.29643363432446     -0.24695155425110
  H   8.40900193344858     -5.22037806162987     -0.82022797388858
  C   8.20103850885267     -4.89886337704949      1.32146958252567
  H   7.42491425761847     -4.52054819094006      2.01104469702346
  H   8.35131258517164     -5.96679051059700      1.55768875376529
  C   9.50620661515009     -4.11297027417443      1.52000088865767
  H   10.31387410164970     -4.60478669324934      0.94423478154490
  H   9.81565530584859     -4.14178381723417      2.57813712779629
  C   9.36089218279766     -2.66116483407642      1.03732995835872
  H   8.67615717519090     -2.10450295784381      1.70112508010230
  H   10.33457758472506     -2.14250850511415      1.06873935821741
  C   8.80353369075232     -2.63168694060060     -0.39372522143325
  H   9.51690540554839     -3.13768741057239     -1.07148568977502
  H   8.68683271771195     -1.60809438683374     -0.76697922641410
  C   5.08572163590073     -3.40840550393655     -0.56740891610272
  C   3.88863282234201     -2.72797803715991     -0.54458991880169
  C   3.77119851361001     -1.32380704075969     -0.38762745125871
  C   2.44176621002740     -0.71891104693010     -0.35636549038654
  N   2.37100802645563      0.65180779159944     -0.29053011595017
  C   1.21906733488874      1.28512749638954     -0.25655509823145
  N   1.20139051338764      2.63558340129761     -0.17905537325776
  C   0.00056123910789      3.19768808803978     -0.14602750440687
  N   -1.20039657093989      2.63580566769026     -0.17899793964407
  C   -1.21836043813086      1.28537180406271     -0.25645293845942
  N   -2.37042079862771      0.65223956654362     -0.29029155905377
  C   -2.44138270685951     -0.71846417457752     -0.35604242132739
  C   -1.24877879488726     -1.45773706451143     -0.38308806549206
  C   0.00017416746058     -0.81624283086054     -0.35920640512834
  C   1.24901925798611     -1.45795384641940     -0.38327767921105
  H   1.23842657196375     -2.54374771681274     -0.41274293665777
  N   0.00029286481758      0.58580580620287     -0.29689148755548
  H   -1.23840192592070     -2.54353522776008     -0.41240565162661
  C   -3.77093383606039     -1.32309101800631     -0.38704697760694
  C   -3.88881914911307     -2.72714266353182     -0.54471819182489
  C   -5.08611719661072     -3.40721625067952     -0.56726694893386
  C   -6.31283469291192     -2.69519264068037     -0.42787126354911
  N   -7.53253646008019     -3.34970941812728     -0.49174633071788
  C   -8.80360211070394     -2.62955131389574     -0.39103323589570
  H   -9.51755609047356     -3.13509485614402     -1.06851976579105
  H   -8.68685795611236     -1.60584855460250     -0.76397473006432
  C   -9.36004038376644     -2.65941850254184      1.04037181844450
  H   -10.33356349462232     -2.14050794976851      1.07260754164675
  H   -8.67472704147519     -2.10319553199272      1.70393726589053
  C   -9.50544203517015     -4.11136686320533      1.52258544217393
  H   -10.31361900218580     -4.60274238306444      0.94715784886473
  H   -9.81421051671288     -4.14049648185491      2.58091168446269
  C   -8.20061941643005     -4.89754287000627      1.32290665661408
  H   -8.35103070584255     -5.96551707071324      1.55882633717460
  H   -7.42394128841996     -4.51969655347318      2.01211517132530
  C   -7.68570413304010     -4.75811565496658     -0.12067634989294
  H   -8.41007637512435     -5.21818643581339     -0.81877605765147
  H   -6.73942529163780     -5.29492987762430     -0.24662578640663
  C   -6.23818392305124     -1.29896275513385     -0.27102438144405
  C   -5.01977294769311     -0.59719815525576     -0.26126657693395
  N   -4.98670507846268      0.77691506726167     -0.11451172003058
  C   -5.97546311045199      1.73759784985608      0.03751803618005
  N   -7.27441466001643      1.41185955180528      0.09122666604831
  C   -8.16683133103815      2.40571128189724      0.24213085264704
  C   -7.85505490267037      3.76018762889690      0.34897067610346
  C   -6.48316392066440      4.08236968362657      0.29071264439172
  C   -5.53782306101865      3.08506537320465      0.13617861202080
  H   -4.47085094126891      3.31906861362082      0.08957371309114
  H   -6.16048358813984      5.12495099045640      0.36774609521429
  C   -8.91805234429998      4.81560585797073      0.51675992054221
  H   -9.92417488034005      4.36913544817942      0.54104370532903
  H   -8.89701611399636      5.54763995790887     -0.30923279309695
  H   -8.78159388344145      5.38366053516133      1.45338299480430
  H   -9.21603896372932      2.08837825630943      0.28060505532161
  H   -4.02351171803847      1.14104492933537     -0.14660555931921
  H   -7.12841245985742     -0.69697662129619     -0.13339806746555
  H   -5.07158180170280     -4.48313672642880     -0.73107653505790
  H   -2.98409278579174     -3.31948385413864     -0.67862804872673
  C   0.00055151740686      4.72858389316718     -0.11160342198437
  F   -1.08476891309079      5.21357015201782      0.51381453262474
  F   1.08791236628466      5.21380723503280      0.50999076224812
  F   -0.00173355625078      5.21592161879633     -1.37293575335026
  H   2.98366866481683     -3.32016608421548     -0.67758188952623
  H   5.07077652429792     -4.48441958943885     -0.73055909650434
  H   7.12901416940353     -0.69852337124991     -0.13606001400132
  C   5.97711098722478      1.73636262801309      0.03409794224727
  N   7.27596750468614      1.41013144410319      0.08710927632881
  C   8.16888895435600      2.40372011607941      0.23675523390151
  C   7.85773229454166      3.75839210293189      0.34292662606857
  C   6.48592487604037      4.08108313308886      0.28550963504043
  C   5.54007229027899      3.08406233917514      0.13227968594643
  H   4.47315694400156      3.31846453873117      0.08634689894287
  H   6.16371399722627      5.12383643007082      0.36218408824252
  C   8.92129478612137      4.81352198776372      0.50894126963379
  H   9.92702612835236      4.36634679427693      0.53627571896358
  H   8.78376488764517      5.38478772814782      1.44343336187151
  H   8.90218641502235      5.54283232216005     -0.31952566792180
  H   9.21799210470117      2.08598456130529      0.27476683664484
