86
Coordinates from ORCA-job ./opt_b3lyp_cdz
  H   -4.03414990209236     -1.87941415009902      0.42694613600565
  N   -4.97211842070068     -1.49688312013634      0.23757827581042
  C   -5.96310022985513     -2.42640002364587     -0.07075762920683
  C   -7.16922925861827     -2.25453023430208     -0.72409224989038
  S   -8.01953242489864     -3.76510457708694     -0.92009249844893
  C   -6.74454517965271     -4.63823663771826     -0.12648430205588
  C   -5.73302146444999     -3.81103364191217      0.26822240791623
  H   -4.83167353026203     -4.14894984964167      0.78294402480886
  H   -6.82252727224010     -5.71425671326550      0.01548557956181
  H   -7.58363039662311     -1.35629959469954     -1.16890222700994
  C   -5.00374817229788     -0.12645082634997      0.34088194906985
  C   -6.22445314103542      0.57800712890437      0.31994528951895
  C   -6.30807107956901      1.97771405684344      0.43712255287808
  N   -7.52918681210087      2.63681351518905      0.49358019896764
  C   -8.80217769701979      1.92239019484627      0.39124980482572
  H   -9.52523569662459      2.45198828901977      1.03958692297865
  H   -8.70474168208042      0.91084640426571      0.80252260406939
  C   -9.33513015720389      1.91213352562944     -1.05005263927056
  H   -10.30874160128070      1.39367850696680     -1.08609882575272
  H   -8.63808727696343      1.34110473073332     -1.68944264529332
  C   -9.46819466495752      3.35084305676388     -1.57446902114800
  H   -9.75828191372497      3.35095601378492     -2.63835935941332
  H   -10.28561267346231      3.85811644708107     -1.02681574519624
  C   -8.16515316644192      4.13961367233273     -1.37249320533608
  H   -8.31011615154591      5.20117348416585     -1.63847395482147
  H   -7.37742880913191      3.74356272233121     -2.03856739379998
  C   -7.67606908235496      4.03573218772370      0.08278212850292
  H   -6.73355685788963      4.57739832781225      0.21408801502807
  H   -8.41342115924476      4.51103780428942      0.75642076129755
  C   -5.08269902964846      2.69461934022516      0.55531177638147
  C   -3.88423366354894      2.01353960526504      0.57950645371883
  C   -3.76451537645584      0.60742299851907      0.47490066231043
  C   -2.43695022749973     -0.00673963402364      0.51449517066301
  C   -1.24828198682565      0.72941410992113      0.40898144687089
  C   -0.00003169058378      0.09200209901207      0.49155530171358
  C   1.24811589468914      0.72959611118401      0.40884374524797
  C   2.43690384677133     -0.00637917525525      0.51423839038047
  N   2.37574526811186     -1.36643364892946      0.66549027164924
  C   1.21900681601240     -2.00221894747255      0.72973387078852
  N   0.00008337839643     -1.30060868447013      0.66072310456269
  C   -1.21872622536773     -2.00239876962715      0.72988009883893
  N   -2.37556569909192     -1.36678142619165      0.66577126151698
  N   -1.20233510455020     -3.34443968376212      0.86613135539581
  C   0.00029140705079     -3.91382304849819      0.92260096420062
  N   1.20282564070307     -3.34426240672161      0.86599552804872
  H   0.00037851459338     -5.00539301503836      1.03093363031505
  C   3.76437117221715      0.60799004587877      0.47449145225537
  C   3.88388555379950      2.01411751246986      0.57918353629247
  C   5.08224583138515      2.69538359432600      0.55489246254175
  C   6.30771196832543      1.97867209481279      0.43649192626317
  N   7.52873913226980      2.63794570618119      0.49282011340949
  C   8.80181114447607      1.92369913368282      0.39026827843671
  H   9.52489819595829      2.45337470543267      1.03851011918624
  H   8.70457365485737      0.91212882709104      0.80152350284800
  C   9.33454344001326      1.91355912285360     -1.05111532768694
  H   10.30821943731727      1.39523702187160     -1.08732593089582
  H   8.63748131672111      1.34245604530922     -1.69041795833431
  C   9.46733099754896      3.35230153449325     -1.57550771748660
  H   10.28476060415003      3.85967154813802     -1.02796115398498
  H   9.75725830163674      3.35248613258350     -2.63944166731024
  C   8.16420986701800      4.14088375936560     -1.37331122004104
  H   7.37644085285454      3.74473795944032     -2.03927640458224
  H   8.30898130714234      5.20247105713804     -1.63928638865769
  C   7.67535957229368      4.03689622244901      0.08203554287175
  H   6.73278773710211      4.57842165950582      0.21349413877100
  H   8.41274228767925      4.51229173548979      0.75557750195378
  C   6.22429050635587      0.57896393446910      0.31922488553911
  C   5.00369807282370     -0.12567908791827      0.34026296729556
  N   4.97228633885808     -1.49610395551062      0.23679903058096
  C   5.96345041902217     -2.42537880175636     -0.07167528369582
  C   7.16948960040751     -2.25315044691920     -0.72507963386848
  S   8.02012488759759     -3.76350415755408     -0.92132581443400
  C   6.74548362758548     -4.63700030473731     -0.12755955546118
  C   5.73376266961451     -3.81008810833369      0.26725579683613
  H   4.83255975011551     -4.14826507693759      0.78206065264524
  H   6.82377992756966     -5.71300154994729      0.01438035737977
  H   7.58364147861244     -1.35476367583330     -1.16981730443286
  H   4.03440282337648     -1.87882952165009      0.42619563101736
  H   7.13100831280407     -0.00881482337386      0.24693032047355
  H   5.07008094645698      3.77591555799725      0.68184051924769
  H   2.98012415789239      2.60684956361775      0.72221341849486
  H   1.24335977768993      1.80377254385798      0.24474524320834
  H   -1.24369255797198      1.80359407562127      0.24489087545331
  H   -2.98053740608364      2.60640948857368      0.72237840575517
  H   -5.07068180667975      3.77516270954661      0.68217665244608
  H   -7.13109136233092     -0.00990991590886      0.24785406288820
