88
Coordinates from ORCA-job ./opt_b3lyp_cdz
  H   -4.00907661194758      1.81288413616420     -0.02268184084280
  N   -4.97161347055824      1.45019042439351     -0.14144079794727
  C   -5.96803339597356      2.39948020552685     -0.18236448409497
  C   -5.56070346952412      3.76241813815250     -0.05776214497042
  N   -6.42105582254259      4.76611240025216     -0.08137853571619
  C   -7.72365052095742      4.44130354927374     -0.23125813818805
  C   -8.12610618122932      3.11829071182579     -0.35259527380849
  N   -7.26455431597115      2.08658720868333     -0.32989201218578
  H   -9.18479549439240      2.86341977886077     -0.47317368127216
  H   -8.44595146231458      5.26232197257706     -0.25260493023959
  H   -4.49710769413597      4.00374722114166      0.06259453539108
  C   -4.98352094344982      0.06642700570931     -0.24388379938669
  C   -6.18823750002789     -0.64028712912083     -0.39325942870933
  C   -6.23938891809082     -2.04405892035292     -0.49921652512551
  N   -7.43832571009932     -2.70803230324779     -0.70526735251096
  C   -7.64371997045423     -4.09975476161052     -0.29877422950387
  H   -6.68883882242290     -4.63455109775850     -0.25874232539242
  H   -8.25596833538849     -4.59550819664434     -1.07544634115149
  C   -8.36729183352999     -4.17941917747665      1.05713749401947
  H   -8.55049667796392     -5.23704810855197      1.31528028095021
  H   -7.70170325280468     -3.76639081518058      1.83651110568733
  C   -9.68784434613485     -3.39482063361342      1.02613521102401
  H   -10.40129082076268     -3.91662072841905      0.35951547064006
  H   -10.15023626540453     -3.37989261194493      2.02718769014443
  C   -9.47382646278775     -1.96419523799803      0.50704412634585
  H   -10.44186428624662     -1.45194044404046      0.37087462938400
  H   -8.89585576764789     -1.37451386533882      1.24038796434591
  C   -8.71026605843387     -1.99289262681752     -0.82559197579709
  H   -8.53997853027123     -0.98570957749607     -1.22245745139409
  H   -9.31571937838716     -2.53221638083086     -1.57854999126773
  C   -5.00567005202505     -2.74980385346167     -0.42729419217456
  C   -3.82179279970700     -2.05891313135973     -0.27743593594258
  C   -3.72855815461691     -0.64968619029026     -0.17990743301370
  C   -2.41137679305360     -0.02377660013259     -0.02925440581998
  N   -2.37094399445503      1.33908701747470      0.08550634869749
  C   -1.23033080456805      1.99484476507132      0.22208544382747
  N   -1.24435971609297      3.33808379193087      0.31992287372137
  C   -0.05426319770025      3.92805949496240      0.44173645432399
  N   1.15421347913889      3.37460098612788      0.48557803326384
  C   1.20101726075073      2.03032728143517      0.39992781018102
  N   2.36737606758616      1.40755353609986      0.44773292073886
  C   2.44628471001397      0.04511790542144      0.36254153505367
  C   1.27763523361449     -0.71042741394783      0.19440922776860
  C   0.02015352524840     -0.08735873442853      0.15202755205082
  C   -1.21003308448354     -0.74697435609524      0.00049620656475
  H   -1.17610724215992     -1.82879072918737     -0.09007458677987
  N   -0.00323004098428      1.30886840306917      0.26496517397225
  H   1.29681000076297     -1.78938010929924      0.06919282701963
  C   3.77598380689699     -0.57025911205922      0.44758904022731
  C   3.87154297518217     -1.97090276267177      0.62738358623892
  C   5.06120274168162     -2.66659952946572      0.68416465360128
  C   6.29550744275494     -1.97358321614726      0.55416120515203
  N   7.50865739336220     -2.64070151910697      0.64349362304662
  C   7.64954514061004     -4.05087193184258      0.27385833433108
  H   8.36034910281303     -4.51965629824884      0.98008073404283
  H   6.69533178645001     -4.57597919511406      0.38953848587428
  C   8.17839634669093     -4.19756273106261     -1.16395488460898
  H   8.31918129567990     -5.26731504675991     -1.39767484470053
  H   7.41372261923537     -3.81137667085406     -1.86193384147866
  C   9.49430194164407     -3.42666131092756     -1.35014076616720
  H   9.81439569548303     -3.46040204293620     -2.40494859324020
  H   10.29043903909872     -3.92639680899323     -0.76522496149580
  C   9.36025883102728     -1.97252239188239     -0.87100532578558
  H   10.34021570560154     -1.46511083542619     -0.89317699292246
  H   8.68858882913094     -1.40974959473428     -1.54306592868834
  C   8.78823671676507     -1.93528633439697      0.55426255046805
  H   9.48988465839171     -2.44758438619919      1.23953028392143
  H   8.67973969360512     -0.90991347309677      0.92563453492504
  C   6.23787455184059     -0.57601004616476      0.38555226244601
  C   5.02917258685797      0.13833018752057      0.35176470160929
  N   5.01233311461688      1.52138068912678      0.20240169773235
  C   6.00956005624639      2.44974069590717      0.02103069948837
  N   5.53734440310289      3.71954182083675     -0.06067337700501
  C   6.44024095640923      4.67591438123481     -0.23959274489448
  C   7.81441046729703      4.42038407151081     -0.34458790198307
  C   8.18423995127247      3.08295800020886     -0.24695252728368
  N   7.30621417553827      2.08871322758683     -0.06474569031816
  H   9.23605709547513      2.78211567900318     -0.31662624195543
  H   8.54467230114540      5.21637725635011     -0.49225709411991
  H   6.05002881336899      5.69873943022598     -0.30332995467406
  H   4.06759014474449      1.93172004757203      0.27108325625466
  H   7.14003501486024      0.00895551491404      0.25708009301094
  H   5.03039490682393     -3.73866302304025      0.87072601819346
  H   2.95559837748573     -2.54471383053075      0.76700564122064
  H   -0.07643754368729      5.02204686574279      0.51581377363755
  H   -2.90850188604064     -2.65175612594904     -0.23977630257050
  H   -4.96698270928955     -3.83343998871707     -0.52171245151192
  H   -7.09158134164790     -0.04267552995234     -0.40617222362597
