111
Coordinates from ORCA-job ./opt_b3lyp_cdz
  H   -4.15388633088887      0.17208710443880      0.01043261366676
  N   -5.07271077237468     -0.27994072462025      0.06174579184031
  C   -5.00836732934726     -1.62959977312550     -0.27164963316301
  C   -6.17339700169388     -2.40340171423816     -0.41039109728343
  C   -6.15598761662214     -3.76048971316568     -0.78524710977116
  N   -7.33093233193370     -4.47017918541523     -0.97411633783332
  C   -8.64756205132595     -3.85273737418593     -0.80374861529915
  H   -9.31332028238172     -4.29043270583676     -1.57165595714320
  H   -8.58864003642403     -2.77873042097210     -1.01312563513610
  C   -9.23133417022188     -4.13462897137210      0.58873135999605
  H   -10.23746805935279     -3.68796297696201      0.66785193250106
  H   -8.59861369385215     -3.64467469603783      1.34965396313607
  C   -9.29143892188597     -5.64934948438938      0.84113164319884
  H   -10.05328838929202     -6.09594880406555      0.17348130937933
  H   -9.61989847484583     -5.85880570686958      1.87283381304536
  C   -7.93375333122318     -6.31354572904136      0.56587907909541
  H   -7.19868183939401     -5.99673264676573      1.32766206036171
  H   -8.01802785316515     -7.41218293684549      0.63415715125127
  C   -7.39765130567276     -5.92535394392583     -0.82363419283082
  H   -6.41396944873564     -6.37506039777254     -0.99610006736129
  H   -8.07278916053295     -6.32021090463817     -1.60603705760920
  C   -4.88698957140945     -4.36117304231943     -1.01599248298262
  C   -3.73937458246060     -3.61834575201793     -0.84900995794166
  C   -3.71862621995922     -2.25450833808193     -0.46102617809761
  C   -2.42070639798610     -1.60960982597778     -0.27178582657845
  N   -2.37282893394835     -0.23732206015927     -0.22725170412054
  C   -1.21908008145356      0.39599980875953     -0.10710636624482
  N   -1.19607100547629      1.74514853268673     -0.09202240448616
  C   -0.00109525247269      2.33134991123175     -0.00340977794385
  N   1.19471121760896      1.74702352026421      0.08621062703938
  C   1.21974579162752      0.39794533543169      0.10322352819042
  N   2.37443827966787     -0.23348656649641      0.22431675281247
  C   2.42429300427948     -1.60562926107113      0.27110730600490
  C   1.24145663233398     -2.34471267032317      0.13273302351460
  C   0.00188699187596     -1.70344867781017     -0.00050955446790
  C   -1.23673531004657     -2.34674593532627     -0.13273463854522
  H   -1.23459800593191     -3.43220294233757     -0.09047459252391
  N   0.00084741791437     -0.30342958893708     -0.00145677796194
  H   1.24092782521985     -3.43023308311813      0.09209766269082
  C   3.72304961136049     -2.24830757794484      0.46221599424095
  C   3.74542108323536     -3.61139502096636      0.85270726677595
  C   4.89393434007645     -4.35225733834957      1.02226282925878
  C   6.16227832705343     -3.75010230051334      0.79187447655535
  C   6.17808799604280     -2.39366778394789      0.41450718084295
  C   5.01208740889232     -1.62187725662840      0.27287419711236
  N   5.07470176713467     -0.27293466551233     -0.06391345835268
  C   6.15062633112535      0.54533304958970     -0.40309556836836
  C   5.90101489839788      1.94555222754869     -0.54995876947979
  C   6.98155058956748      2.74422654918471     -0.90987891161774
  C   8.25176012970226      2.18850315619371     -1.11349200664285
  C   8.38252059726942      0.81811301032871     -0.93353356907741
  N   7.36764914047551      0.01192762797025     -0.58858333999901
  H   9.35158974010985      0.32579757276776     -1.07107258403897
  H   9.10716898076632      2.80453995609830     -1.39555271103772
  H   6.82576954973307      3.82026077860341     -1.02804775907898
  C   4.53776427930608      2.53745914620704     -0.31961365813096
  H   3.79214631676481      2.16240910613642     -1.04053868958084
  H   4.14245415925257      2.28325863350366      0.67799116422220
  H   4.57084406870137      3.63335658748388     -0.40398134569261
  H   4.15502203768459      0.17760407954513     -0.01521531953246
  H   7.10768956041277     -1.88960215913655      0.18522324616999
  N   7.33808200645685     -4.45761374982586      0.98339323969748
  C   8.65400653977859     -3.83856331384245      0.81345062962496
  H   9.31935458183171     -4.27342360465050      1.58332737950688
  H   8.59317684759766     -2.76415422522406      1.02017777629487
  C   9.24016473662316     -4.12289217651887     -0.57752933997138
  H   8.60776205191708     -3.63573492421398     -1.34051180895826
  H   10.24572143120825     -3.67487082503824     -0.65631243145387
  C   9.30294723123587     -5.63811120005115     -0.82623494474734
  H   9.63319122989848     -5.84952320418162     -1.85696821517489
  H   10.06453039797088     -6.08195110628015     -0.15644471039588
  C   7.94589460054533     -6.30373656157133     -0.55132345041073
  H   8.03197757325972     -7.40240444850526     -0.61679851387837
  H   7.21143541816919     -5.98994509500667     -1.31494840412447
  C   7.40718649366461     -5.91302534728283      0.83647540436873
  H   8.08177540524589     -6.30503069725004      1.62078870029167
  H   6.42392997970947     -6.36379694688404      1.00857265572602
  H   4.80810911823466     -5.37857981591155      1.37496752309367
  H   2.79978679083316     -4.10359520077711      1.07944840382118
  C   -0.00209388804216      3.82595902710256     -0.00487767120643
  C   -1.18978864995218      4.54429950804890     -0.19010008775735
  C   -1.12846814849848      5.93843294975943     -0.17770534004251
  N   -0.00378270261746      6.63814194514096     -0.00805771166279
  C   1.12174612888941      5.94017328015085      0.16312339506362
  C   1.18473085713111      4.54615299251968      0.17868551003141
  H   2.12175817734637      4.01663959104143      0.33094730270732
  C   2.37186643232771      6.78299564586636      0.34569917675853
  F   2.28670953496988      7.56385050572505      1.43873954289649
  F   3.47518434790511      6.00706568549966      0.49011001763317
  F   2.58318957505529      7.58731220161850     -0.71263511019063
  C   -2.37958839505760      6.77942494453656     -0.36187398684355
  F   -3.48130645921671      6.00189712053256     -0.50990198607990
  F   -2.29331047270155      7.56214860141965     -1.45341003667181
  F   -2.59463934986852      7.58171100907175      0.69732788901914
  H   -2.12614410195275      4.01330084487535     -0.34129656588601
  H   -2.79324493967788     -4.10958326586551     -1.07579395161304
  H   -4.80007413804657     -5.38801524394913     -1.36691174200547
  H   -7.10348448611074     -1.90053023671043     -0.18044482860230
  C   -6.14942883798188      0.53687728474139      0.40193941487477
  N   -7.36362393141592      0.00053970378749      0.59720959397909
  C   -8.37905471670461      0.80535087158624      0.94370573831769
  C   -8.25158174827963      2.17708744139021      1.11578172323356
  C   -6.98447371428171      2.73583143184388      0.90143009171429
  C   -5.90354052270039      1.93868539056202      0.53926907187815
  C   -4.54389763935185      2.53377843871050      0.29607553927821
  H   -3.79153411424019      2.16473726978606      1.01302409651928
  H   -4.57989615814577      3.62997274166328      0.37521459023368
  H   -4.15547025348717      2.27582120001725     -0.70332975781716
  H   -6.83156040822353      3.81302681216072      1.01257160039551
  H   -9.10727951238100      2.79187499803343      1.39969046616087
  H   -9.34576892038611      0.31074592284465      1.08936954993352
