86
Coordinates from ORCA-job ./opt_b3lyp_cdz
  H   -4.04136433254980      1.88265810292617     -0.31523647234798
  N   -4.97471895720598      1.46148616496989     -0.44778230600352
  C   -6.05492167324304      2.29165001580409     -0.65615224176558
  C   -6.40960508572658      3.49008494244732     -0.10335418329496
  C   -7.55693107592244      3.97406341425852     -0.83559277461175
  C   -7.80179239658187      3.01111878956452     -1.75832196526832
  F   -8.75148443531556      2.87243748123064     -2.67217186190856
  O   -6.92539941783577      1.98799574313077     -1.70261247346865
  H   -8.12076613297169      4.88897104030052     -0.68310400998042
  H   -5.90793140364194      3.97505253487047      0.72978004337281
  C   -4.99428289116616      0.09159651875231     -0.25893679404931
  C   -6.21933700976415     -0.60034850072845     -0.25652548500013
  C   -6.31131219369476     -1.99105394451540     -0.07368942106077
  N   -7.52626048725200     -2.65772832236717     -0.13595851765508
  C   -7.77373886345074     -3.89933634794808      0.60093732847789
  H   -8.37372202134772     -4.56837062499093     -0.04449977629614
  H   -6.83044478175733     -4.41641959264835      0.80668612254237
  C   -8.53455261947299     -3.62585216254145      1.91059021160478
  H   -7.87925770996105     -3.04436801163865      2.58407887399168
  H   -8.75067465799785     -4.58290678242582      2.41660208872519
  C   -9.83355953607044     -2.84951506449839      1.64676681676554
  H   -10.32240274801168     -2.58184326460613      2.59829888091871
  H   -10.54183675687375     -3.50458470242358      1.10386077303305
  C   -9.56799664309946     -1.59350108650512      0.80199953937828
  H   -10.51755641629887     -1.10909902710672      0.51628236997387
  H   -8.99126028420501     -0.85657676815769      1.38881373252258
  C   -8.77485727692299     -1.96661463703251     -0.45960568463186
  H   -8.56769321878959     -1.09483069219993     -1.09153922838842
  H   -9.38055393498371     -2.66053670196859     -1.07302965023103
  C   -5.09418164809639     -2.70085598846267      0.13966172024022
  C   -3.89209693649509     -2.02686514468431      0.13983960672741
  C   -3.76351815488897     -0.62966802028535     -0.05806258217669
  C   -2.43649894671469     -0.01193267049006     -0.04775071287208
  N   -2.37713633640120      1.35641008364690     -0.05877582437160
  C   -1.21889225198601      1.99535874806731     -0.03663566284397
  N   -0.00024083939281      1.29008938752352      0.00000123234615
  C   1.21854690742504      1.99512212956728      0.03662223030885
  N   2.37666624341792      1.35595296974648      0.05877460981503
  C   2.43577340132186     -0.01240187151504      0.04770553896358
  C   1.24694331594367     -0.75479659393913      0.02766745021662
  C   -0.00037397461956     -0.11171126085142     -0.00004045583660
  C   -1.24781187213618     -0.75456116698299     -0.02779788678200
  H   -1.24074086820922     -1.84072803468455     -0.05053409170871
  H   1.23963841277219     -1.84096463060033      0.05023451689438
  C   3.76269782826087     -0.63034630995063      0.05802349262720
  C   3.89105253933228     -2.02763581703917     -0.13946741978888
  C   5.09306363493965     -2.70174954451879     -0.13934552754379
  C   6.31031617874794     -1.99197606140422      0.07337145902561
  N   7.52520000118316     -2.65875863534603      0.13530709224439
  C   7.77263256862902     -3.90012177054054     -0.60197030474376
  H   8.37120110510292     -4.57017204209260      0.04374817400097
  H   6.82910675074945     -4.41612833187344     -0.80939002801384
  C   8.53527619777210     -3.62650955007591     -1.91054558143635
  H   8.75141002937877     -4.58351310636729     -2.41665081361868
  H   7.88116792316669     -3.04436263572522     -2.58461751591164
  C   9.83441418091432     -2.85104949774719     -1.64487321227179
  H   10.54160388846755     -3.50666952560034     -1.10121070832634
  H   10.32463810352951     -2.58343281782204     -2.59570906218315
  C   9.56844643287459     -1.59512164238162     -0.80012601462297
  H   10.51786682718088     -1.11118371710603     -0.51316712086027
  H   8.99269675670879     -0.85783010382603     -1.38745016985044
  C   8.77369439595591     -1.96822744672134      0.46045805005366
  H   9.37848636621713     -2.66250843744782      1.07439995412074
  H   8.56610295705772     -1.09650259871859      1.09234114994426
  C   6.21856493750398     -0.60123088298938      0.25586941904786
  C   4.99357149190441      0.09083040755127      0.25847406779771
  N   4.97424819162024      1.46076794776990      0.44700893139475
  C   6.05467287452493      2.29064199814521      0.65538533173117
  C   6.41011952155358      3.48864428155872      0.10214840768591
  C   7.55741003453047      3.97243668711855      0.83456181653165
  C   7.80139370799448      3.00988181679005      1.75793584233992
  F   8.75062138339233      2.87129188929215      2.67228164003417
  O   6.92455916405369      1.98715366879348      1.70240967823784
  H   8.12175874811519      4.88698865928906      0.68183964251226
  H   5.90903772147842      3.97334723412431     -0.73149488415662
  H   4.04091273747930      1.88204440794863      0.31468581648171
  H   7.11944704978203     -0.01143372833186      0.39003049090748
  H   5.08719641173416     -3.78252361007362     -0.26835218653829
  H   2.99199132796792     -2.61906786625718     -0.31202063673689
  N   1.20170960699070      3.34296273744629      0.04370416601468
  C   0.00001502940293      3.91527122879074     -0.00003155921417
  N   -1.20179331094436      3.34319333241000     -0.04374364070986
  H   0.00011400415216      5.01222675714159     -0.00001352999259
  H   -2.99315752011044     -2.61832710459809      0.31294044655788
  H   -5.08836772016351     -3.78154641347634      0.26926711783096
  H   -7.12008151426710     -0.01049396579914     -0.39125805497411
