88
Coordinates from ORCA-job ./opt_b3lyp_cdz
  H   3.97840542966016     -1.58022598721271     -0.17578413431871
  N   4.95703277094165     -1.22856501526200     -0.22815156638670
  C   5.91650183345928     -2.19945980205518     -0.30800553164712
  C   5.75747059337996     -3.56599732159650     -0.31318247620883
  C   7.08821023800304     -4.10804406659403     -0.41414616670691
  C   7.46154574715172     -5.48280071123396     -0.45774892606220
  N   7.76328391681767     -6.60705133293854     -0.49257758027904
  C   7.95144448730904     -3.04511276111119     -0.46229881543079
  O   7.24291952198268     -1.87540215635187     -0.39767171282820
  H   9.02906534455761     -2.95699205747369     -0.53761121806859
  H   4.81999203370138     -4.11055740987538     -0.25497971798418
  C   5.00795621488502      0.15317089338828     -0.23643854638288
  C   6.23260685280020      0.84475915590269     -0.28536015832563
  C   6.31470282823466      2.25050390461523     -0.29593317830997
  N   7.52975526888786      2.90618951498846     -0.40391738921664
  C   8.79530422196533      2.18595470428216     -0.55126881404715
  H   8.62340733776202      1.21926807792699     -1.03883692989465
  H   9.42650055006430      2.77674738316699     -1.24171227755603
  C   9.52559668312405      2.03612304951406      0.79177877889602
  H   10.48921436132706      1.52090242684707      0.63722409737844
  H   8.92134391291489      1.40069312388875      1.46343975507432
  C   9.74703529965132      3.41732632591128      1.42819297057664
  H   10.18551330139937      3.31511131565839      2.43466796271721
  H   10.48308979153801      3.97889155625102      0.82143411221726
  C   8.43655866684198      4.21633765413685      1.49276221671939
  H   7.74819667435835      3.75241156532830      2.22211523863440
  H   8.62758117467020      5.24687612597774      1.83895836931029
  C   7.74177241369558      4.25818467470731      0.12021438595330
  H   8.37427127578778      4.80914968587055     -0.60081941933252
  H   6.79136727555989      4.79788896877366      0.18724240921695
  C   5.09060243996580      2.97632094847562     -0.23352825098121
  C   3.89017824220957      2.30301126993776     -0.17752412718872
  C   3.76638114824869      0.89210369552755     -0.17388159750353
  C   2.43622351845329      0.28375075263894     -0.11177472434464
  N   2.36966204056406     -1.08507036615572     -0.10580342844022
  C   1.21509279705309     -1.72669841223946     -0.05220529872661
  N   0.00029821553820     -1.02055713036465      0.00209775541951
  C   -1.21492952923723     -1.72576189305034      0.05883611578776
  N   -2.36910255005723     -1.08324530921345      0.11021816744085
  C   -2.43484294538392      0.28562883840162      0.11115003011638
  C   -1.24552704823343      1.02659821610128      0.05444064075591
  C   0.00071271298543      0.38258582284819     -0.00062507025523
  C   1.24733027468845      1.02563673489031     -0.05825887050898
  H   1.23697319016724      2.11167086983763     -0.05914902839235
  H   -1.23454038454519      2.11261982615403      0.05052129552042
  C   -3.76461802613459      0.89498935828477      0.17145287399104
  C   -3.88742166095508      2.30598956256586      0.17349400026382
  C   -5.08743733072976      2.98019127368760      0.22743829849376
  C   -6.31211761496434      2.25529066063814      0.28915101829521
  N   -7.52682778912326      2.91196792794377      0.39492669611621
  C   -8.79304381545708      2.19282409991908      0.54185508420001
  H   -8.62234343230013      1.22664697985106      1.03085067181527
  H   -9.42455958819692      2.78494846388596      1.23086711123600
  C   -9.52201579025419      2.04175303181185     -0.80176869096122
  H   -10.48617001038062      1.52743441575084     -0.64755468052407
  H   -8.91750536908230      1.40499938540606     -1.47194274103347
  C   -9.74177489788146      3.42227326173773     -1.44024089060491
  H   -10.47806333604529      3.98517859660011     -0.83500953042024
  H   -10.17925694643068      3.31904763083389     -2.44704649104424
  C   -8.43064440496359      4.22023412713169     -1.50447272645413
  H   -7.74184514616321      3.75481351160072     -2.23245914746565
  H   -8.62053202461395      5.25044736018023     -1.85225739208329
  C   -7.73728965988253      4.26341549339848     -0.13123989636466
  H   -8.37013420939091      4.81583614129813      0.58837629915278
  H   -6.78640244914154      4.80230534768798     -0.19801602449699
  C   -6.23099203327994      0.84947823884993      0.28039044678366
  C   -5.00675714156026      0.15699017513412      0.23375292843594
  N   -4.95674347440711     -1.22479115920706      0.22731413517494
  C   -5.91690397956346     -2.19495942171704      0.30772326390982
  C   -5.75846319443610     -3.56152837697726      0.31905025673378
  C   -7.08986280567255     -4.10264251034349      0.41623883480824
  C   -7.46394910128933     -5.47706664757749      0.46371430518553
  N   -7.76626628654114     -6.60104967350428      0.50198388441828
  C   -7.95285576026383     -3.03918503264238      0.45643225764277
  O   -7.24357026680580     -1.87002410688453      0.39022821052281
  H   -9.03074363167468     -2.95032959480859      0.52690504051549
  H   -4.82096462015587     -4.10668553338783      0.26708737037495
  H   -3.97820084099567     -1.57714674396782      0.17815145309313
  H   -7.13695072810014      0.25796929052363      0.28557149796634
  H   -5.07393400296845      4.06781013928482      0.25979573512861
  H   -2.98335882858902      2.91306772398932      0.14192172364326
  N   -1.20119732298446     -3.07325963344808      0.06034257754667
  C   -0.00050847039656     -3.64828631953176      0.00663569418194
  N   1.20053429154674     -3.07418361798366     -0.04903582966415
  H   -0.00084548059102     -4.74476407150678      0.00851420128057
  H   2.98660338913732      2.91076627538375     -0.14505951680694
  H   5.07780592199987      4.06391988099319     -0.26676339772755
  H   7.13814943699205      0.25261509401392     -0.29090981213281
