84
Coordinates from ORCA-job ./opt_b3lyp_cdz
  H   -3.98994492796512      1.99968628836714     -0.20675914075590
  N   -4.96323112642075      1.63830948689199     -0.26281215125692
  C   -5.93682645432481      2.59754860640105     -0.34172215308544
  C   -5.83339323715735      3.96829454216469     -0.34663194663100
  N   -7.10692395238266      4.51538853844821     -0.44308419598561
  C   -7.90354083230491      3.50063433585058     -0.49085595210764
  O   -7.26473971088012      2.27968748124997     -0.43371478425528
  H   -8.98640072997952      3.47210886745335     -0.56873551859392
  H   -4.93365456479035      4.57492463494573     -0.28853542727029
  C   -5.00545774608555      0.25846007594276     -0.27403689809970
  C   -6.22919081761117     -0.43690941969419     -0.33102572774283
  C   -6.30804859764874     -1.84138140111535     -0.34656712597072
  N   -7.52220836719468     -2.50053460116842     -0.46426200123469
  C   -8.78670332679007     -1.77915378513798     -0.61305307377533
  H   -9.42050386321292     -2.37311529637432     -1.29852201513434
  H   -8.61363355707051     -0.81559154996171     -1.10655155281917
  C   -9.51483912066520     -1.61894428468864      0.73010872480597
  H   -10.47807612425699     -1.10345802097342      0.57361767938759
  H   -8.90877503831550     -0.97952582032745      1.39620952872812
  C   -9.73693473851316     -2.99529332990779      1.37680656464574
  H   -10.47445389159623     -3.56060470448687      0.77515029294879
  H   -10.17390423053780     -2.88547678153324      2.38324175886779
  C   -8.42713263115603     -3.79520907644604      1.44503424073135
  H   -7.73700933959091     -3.32626275361504      2.16950198291274
  H   -8.61856120918188     -4.82293606782020      1.79958938205385
  C   -7.73508312037137     -3.84760112599527      0.07136170600777
  H   -6.78501275174810     -4.38783330604058      0.14056623528714
  H   -8.36975338999794     -4.40370588752591     -0.64393442086470
  C   -5.08327723581740     -2.56619689853907     -0.28149827475000
  C   -3.88449610128810     -1.89076791614118     -0.21653592367817
  C   -3.76309951582271     -0.47943623687589     -0.20634750900739
  C   -2.43473601028052      0.13055449753859     -0.13305498476387
  N   -2.36951584010530      1.49961838532082     -0.12877624935656
  C   -1.21529877426680      2.14107342714842     -0.06570851674401
  N   -1.20067514824163      3.48879403581275     -0.06418477743258
  C   -0.00005237858922      4.06239114655808      0.00041106798116
  N   1.20058971468287      3.48882551155008      0.06494815133354
  C   1.21526801233978      2.14110977797590      0.06632757155861
  N   2.36951511097728      1.49969496729641      0.12932344564064
  C   2.43478530631125      0.13062925999679      0.13342314280168
  C   1.24585310514488     -0.61053567695348      0.06728101846563
  C   0.00002604345811      0.03280477389602      0.00016047343662
  C   -1.24577328404270     -0.61057990651209     -0.06707532626135
  H   -1.23490779339440     -1.69662267627137     -0.06437303146164
  N   -0.00000426120302      1.43585318257190      0.00027253640957
  H   1.23503118565751     -1.69657889764283      0.06433162485868
  C   3.76316621082969     -0.47933836569711      0.20665093164271
  C   3.88455762035740     -1.89067137300778      0.21691805785305
  C   5.08334280045778     -2.56610471796000      0.28174809142434
  C   6.30812839039224     -1.84129256238437      0.34657571270030
  N   7.52230314682746     -2.50044732912493      0.46411260949302
  C   8.78682154858332     -1.77907482320257      0.61273901496226
  H   8.61381797486669     -0.81550270000775      1.10624104715961
  H   9.42069880743735     -2.37302991189882      1.29814296013223
  C   9.51480053495571     -1.61889416806268     -0.73051060493503
  H   10.47806032924546     -1.10341420417017     -0.57414021373106
  H   8.90866396204225     -0.97948143097869     -1.39655086282867
  C   9.73680731251194     -2.99525627352988     -1.37721041987858
  H   10.17366372015016     -2.88546181923228     -2.38369700416021
  H   10.47438789206749     -3.56056642486734     -0.77562850159940
  C   8.42698717569849     -3.79515547788992     -1.44527602808969
  H   7.73678758159167     -3.32620919097398     -2.16967128624266
  H   8.61836047498312     -4.82289008468602     -1.79983927765094
  C   7.73509215224172     -3.84752144755941     -0.07152434463185
  H   8.36982698605357     -4.40364145612165      0.64370314988903
  H   6.78499633377241     -4.38772149778164     -0.14062498043849
  C   6.22927649242834     -0.43682225719186      0.33098702028173
  C   5.00554004176598      0.25855633359383      0.27416609329332
  N   4.96333525032447      1.63840621634478      0.26294210289060
  C   5.93696066167627      2.59762468140150      0.34172411862979
  C   5.83352384230942      3.96836863072679      0.34710185169453
  N   7.10710330311366      4.51543943324338      0.44303948677067
  C   7.90374944972724      3.50067429603944      0.49009373253673
  O   7.26492386607822      2.27974176747429      0.43291931339610
  H   8.98664859899392      3.47213009050902      0.56742123763030
  H   4.93375176243678      4.57501137571828      0.28965445870405
  H   3.99003302823260      1.99980030493793      0.20725365171249
  H   7.13545651238035      0.15483275158762      0.33983957849953
  H   5.06895129572902     -3.65357939619836      0.32129877382979
  H   2.97983433170123     -2.49673683928175      0.18377239487859
  H   -0.00006786672732      5.15904421540527      0.00046897896006
  H   -2.97978540179653     -2.49683890752282     -0.18317313969415
  H   -5.06888586375253     -3.65367478371187     -0.32094934013335
  H   -7.13536051866581      0.15475818268640     -0.34004568043645
