18
Coordinates from ORCA-job ./opt_b3lyp_cdz
  C   0.91651455601682     -2.96034177415140     -9.64727347168829
  N   -0.36761584803206     -3.00776061853461    -10.00057316383027
  C   -1.25753889853051     -2.67203792941644     -9.04006108161400
  C   -2.64924472599643     -2.67146014863567     -9.25298993652961
  N   -3.54628133099407     -2.34223714727871     -8.31511945390847
  C   -3.10661359634191     -1.99562917843007     -7.11402610779334
  C   -1.73275730258822     -1.95540347783276     -6.77015466518503
  C   -1.20690948281108     -1.59351215346555     -5.50527397021057
  N   0.09031146326142     -1.57234456887043     -5.23548773368603
  C   0.94978964138551     -1.90944925097989     -6.20520652137307
  C   0.55721892107816     -2.28778459447105     -7.50324066813159
  N   1.44098729686791     -2.62482843995431     -8.46898998424861
  N   -0.81979349347835     -2.30174709951378     -7.76163040352044
  H   1.63579427656745     -3.23315672253945    -10.42842656071495
  H   -3.00434870940509     -2.95785659145070    -10.24424138410758
  H   -3.84195316220546     -1.72748887825454     -6.35087220900880
  H   -1.90557704191122     -1.31764307079470     -4.71106257882128
  H   2.01941743711712     -1.89418835542596     -5.98991010562801
