84
Coordinates from ORCA-job ./opt_b3lyp_cdz
  H   -4.04530881567362      2.01099839982757     -0.38246889002280
  N   -4.98308902298505      1.59828612521327     -0.24548753320165
  C   -6.04486472913539      2.42956571032146      0.07521997003040
  C   -6.41842197059879      3.58122639116326     -0.57641249795203
  N   -7.41478536752209      4.33130445801319      0.00332175610011
  C   -7.83165088453267      3.77323685598805      1.10158801861686
  S   -7.02167737529336      2.28526656119032      1.55574980059805
  H   -8.64543050305181      4.16360097890228      1.71588060232881
  H   -5.96458273993195      3.91441611190164     -1.51042940460976
  C   -4.99726705515059      0.22093597315570     -0.35189456842193
  C   -6.22223184389925     -0.47147365673298     -0.33156375458647
  C   -6.31247719093822     -1.87190291517180     -0.43136294188139
  N   -7.53374948346584     -2.52791907325410     -0.46835790836308
  C   -7.68731060034948     -3.91140891324915     -0.01024724544164
  H   -6.73772692366963     -4.45074380459776     -0.09238993630109
  H   -8.40346147642270     -4.41715467710343     -0.68474146672319
  C   -8.21417203468557     -3.96132606090903      1.43480690881107
  H   -7.44373149354931     -3.53988468304272      2.10552433226642
  H   -8.36454920576942     -5.01283628769664      1.73539521094751
  C   -9.52206605089684     -3.16770488251350      1.57568414977668
  H   -10.32471037422634     -3.69468103071973      1.02474627056056
  H   -9.83942001577256     -3.13265557401350      2.63117810783835
  C   -9.37544741725013     -1.74739549277333      1.00722514337417
  H   -8.69805952281849     -1.15037707843148      1.64314837395757
  H   -10.35020056697130     -1.22999643606230      0.99805625036525
  C   -8.80614151360576     -1.80626464411747     -0.41828812160841
  H   -9.51470605636337     -2.35336815580258     -1.06845563871536
  H   -8.69138569649038     -0.80848102939343     -0.85771580551648
  C   -5.08905535608859     -2.59223625334666     -0.55664706845060
  C   -3.88721019488910     -1.91793318831273     -0.58191889674942
  C   -3.76246278705565     -0.51106499422678     -0.47512739315626
  C   -2.43573017405229      0.10672857734636     -0.49176495839166
  N   -2.37754354064578      1.47159747472500     -0.57796072503262
  C   -1.21871205340206      2.11028474868357     -0.61027744682120
  N   0.00024053658184      1.40511946238952     -0.57299314581504
  C   1.21926531089706      2.11014204847700     -0.60994940797876
  N   2.37804177588556      1.47137437499415     -0.57736334446178
  C   2.43604671352845      0.10649133734645     -0.49116399373314
  C   1.24791930113755     -0.63406386643217     -0.42286734062963
  C   0.00015053369825      0.00704739257389     -0.47304868546014
  C   -1.24767264094363     -0.63394839078839     -0.42318338976879
  H   -1.24250297761190     -1.71523757989270     -0.31726470556647
  H   1.24262240267461     -1.71534585077041     -0.31683793410790
  C   3.76270886805822     -0.51144259927896     -0.47427772561068
  C   3.88739644387915     -1.91820622194941     -0.58223423574182
  C   5.08917470883995     -2.59264379084862     -0.55693244011267
  C   6.31257104155797     -1.87248624963518     -0.43041856191849
  N   7.53381367301917     -2.52851842754861     -0.46736132267561
  C   7.68717545564286     -3.91249374895207     -0.01069228863757
  H   8.40302276237520     -4.41778228548953     -0.68586058766145
  H   6.73742601272049     -4.45149490145354     -0.09307017737011
  C   8.21437366485338     -3.96398890354612      1.43419059153115
  H   7.44415109093574     -3.54313176389825      2.10552497349609
  H   8.36464549385708     -5.01584180272777      1.73362968780659
  C   9.52241955540840     -3.17072659271013      1.57562888692474
  H   9.84000999001221     -3.13685605080908      2.63108984888918
  H   10.32486605658027     -3.69722671997898      1.02394819098687
  C   9.37586568288057     -1.74979674775049      1.00871641720413
  H   10.35067601638951     -1.23250112983385      0.99991588923225
  H   8.69865735838755     -1.15337974517992      1.64539541307384
  C   8.80629737537517     -1.80708549968362     -0.41675351093770
  H   8.69160691028963     -0.80881762581746     -0.85509193723977
  H   9.51469910137030     -2.35358838615633     -1.06761446712822
  C   6.22237932825984     -0.47211707953925     -0.32945212671469
  C   4.99748900212983      0.22041283007318     -0.34973720790396
  N   4.98308194104877      1.59764678166064     -0.24190260785402
  C   6.04416089699483      2.42935817891333      0.07965670368559
  C   6.41394107429586      3.58424968439212     -0.56852707045047
  N   7.41007169156535      4.33413038541412      0.01182369801914
  C   7.83050807420161      3.77288206770859      1.10706753558136
  S   7.02430124063475      2.28165093475018      1.55756793379050
  H   8.64497332568589      4.16242863230586      1.72095912875946
  H   5.95741835926153      3.91999476037439     -1.50032213910726
  H   4.04547847289039      2.01034480410631     -0.38021570645508
  H   7.12383248184867      0.12484758526033     -0.23023104622784
  H   5.08468439569627     -3.67298560637657     -0.68845134007902
  H   2.98677878196655     -2.51597547100172     -0.72312495350984
  N   1.20263755740257      3.45532091188936     -0.68129663352912
  C   0.00040300323814      4.02765130908592     -0.71050510364778
  N   -1.20193572700310      3.45545919534039     -0.68166017878669
  H   0.00053184459559      5.12303296231070     -0.76608957730034
  H   -2.98659545290758     -2.51595859657636     -0.72170049803260
  H   -5.08456262311348     -3.67270388300895     -0.68714111190158
  H   -7.12362117396213      0.12573344728437     -0.23317152204494
