84
Coordinates from ORCA-job ./opt_b3lyp_cdz
  H   -4.00467746010112      1.96052113102933      0.14822499622486
  N   -4.97285149251358      1.58734196777758      0.12440785471678
  C   -5.96288753003147      2.50781083158643     -0.11235252934289
  C   -5.74979128754796      3.87941607823767     -0.15928375308407
  C   -6.94631821875916      4.56902713209865     -0.48009862195176
  N   -8.04798555730763      3.86943427128395     -0.67795402829609
  S   -7.66056675868323      2.22531409083884     -0.48678452864698
  H   -7.01486952702871      5.65803025965217     -0.57096068052162
  H   -4.78049624037552      4.34469934189437      0.02176227427852
  C   -4.99937250144954      0.21748612119264      0.30255816990656
  C   -6.21413274017221     -0.47497745892049      0.43896348290501
  C   -6.29064659494320     -1.87220568344579      0.60989932634607
  N   -7.49937336648736     -2.51851910870927      0.79686090608637
  C   -8.77816933746078     -1.80364925326557      0.81330845722859
  H   -8.63616534617623     -0.77412941635650      1.16133937604556
  H   -9.41610389927953     -2.30025393610125      1.56814373447549
  C   -9.47624346588559     -1.85959562188709     -0.55367068300922
  H   -10.44829640296247     -1.34093309659088     -0.49622680531215
  H   -8.86359537038610     -1.31637292167017     -1.29472121849798
  C   -9.66620972368229     -3.32074541519770     -0.99032995121702
  H   -10.07862273658650     -3.36971000415253     -2.01170477594596
  H   -10.41231591377746     -3.80022406724611     -0.32799441045330
  C   -8.34671281915150     -4.10333754294566     -0.90700338712196
  H   -8.51852370437216     -5.17576767375652     -1.10403175793261
  H   -7.64401831023717     -3.74073386692285     -1.67881049032071
  C   -7.68862229909630     -3.93571325569570      0.47371691554331
  H   -6.73487946051874     -4.47191983209099      0.51531090578860
  H   -8.33822780577641     -4.37779724245720      1.25195972977810
  C   -5.05824854206649     -2.58617344544479      0.63599747039170
  C   -3.86281706902168     -1.91095450418782      0.51383332939002
  C   -3.75202434200233     -0.51070558420466      0.33962900940167
  C   -2.42783900587919      0.10042275496931      0.21088788856596
  N   -2.36499594434964      1.46842454250500      0.20052894180788
  C   -1.21338457551226      2.10935659374802      0.09727027504734
  N   -1.19888677029105      3.45709171794631      0.08752846433123
  C   0.00032265868712      4.03077778691194      0.00233673885116
  N   1.19938231750948      3.45685803750112     -0.08343227012483
  C   1.21356528001790      2.10915402566921     -0.09454380041210
  N   2.36500580543123      1.46803002979849     -0.19840062600407
  C   2.42749982548327      0.10001170597626     -0.21017254131985
  C   1.24355854641227     -0.64289521008852     -0.10146148989205
  C   -0.00018668427505      0.00068780854382      0.00028917554588
  C   -1.24408495767765     -0.64269311783800      0.10140337146205
  H   -1.23895984524488     -1.72871462713565      0.07563230775403
  N   -0.00001525134804      1.40339830167772      0.00099974642554
  H   1.23812509102510     -1.72894221857392     -0.07678077224299
  C   3.75155906413909     -0.51128763383723     -0.33938338651853
  C   3.86207536372125     -1.91145030936007     -0.51447508495657
  C   5.05737008692910     -2.58683234693384     -0.63705725743668
  C   6.28990782225541     -1.87311826816869     -0.61046182686898
  N   7.49850825165425     -2.51955314524062     -0.79777955798901
  C   8.77738701264876     -1.80484610290659     -0.81434293743226
  H   9.41504153480416     -2.30127246045438     -1.56953606425322
  H   8.63538305397940     -0.77519124402702     -1.16198595930834
  C   9.47586240715693     -1.86134849892089      0.55240577174335
  H   8.86349461699543     -1.31832079101704      1.29383184911208
  H   10.44795988827463     -1.34278224116867      0.49485750261786
  C   9.66577282975392     -3.32267807376449      0.98847718804395
  H   10.41158550854342     -3.80202532435348      0.32571611308806
  H   10.07852184834829     -3.37207324140891      2.00969554559264
  C   8.34613226889968     -4.10504036030262      0.90531866025172
  H   7.64374829125339     -3.74257862728639      1.67747565664145
  H   8.51784132425353     -5.17756124359930      1.10194104812854
  C   7.68759473816802     -3.93688035380652     -0.47512689455141
  H   6.73371360344878     -4.47285781274013     -0.51649272747628
  H   8.33682395494857     -4.37889329354453     -1.25372702243107
  C   6.21367283502188     -0.47598466533309     -0.43866575808625
  C   4.99905134450905      0.21664384804955     -0.30188734912069
  N   4.97277626738220      1.58639996078329     -0.12299388664689
  C   5.96297356925479      2.50663266439029      0.11398125759787
  C   5.74999546911926      3.87823130713318      0.16172116787015
  C   6.94678482893550      4.56761697640299      0.48202619092989
  N   8.04854004673857      3.86785129273291      0.67879961724003
  S   7.66071047290421      2.22381097939135      0.48789549683877
  H   7.01553211638988      5.65659094914176      0.57307656180261
  H   4.78066369163271      4.34367972315216     -0.01870545251919
  H   4.00466513278759      1.95976596813545     -0.14664983927740
  H   7.13075217589408      0.10163303717368     -0.43045526695799
  H   5.03261610866191     -3.66209687415505     -0.80089354412084
  H   2.95119434667311     -2.50588502061441     -0.58225251127900
  H   0.00048035806601      5.12738687003089      0.00289308524421
  H   -2.95204817737269     -2.50560026319743      0.58125014982109
  H   -5.03369312196278     -3.66155107293477      0.79911124872082
  H   -7.13106511228381      0.10288214228542      0.43122133032313
