84
Coordinates from ORCA-job ./opt_b3lyp_cdz
  H   -4.05502916594178      2.02146740836941      0.58523744482113
  N   -4.96814651724603      1.60929738595633      0.32184591296226
  C   -5.90153018965020      2.52102870363108     -0.10592095663906
  N   -5.70150414866846      3.80430649149532      0.07092086664265
  C   -6.69733875675191      4.54629349805556     -0.51478699799651
  C   -7.68940983018241      3.86003819022470     -1.15203086180965
  S   -7.37495066412078      2.14241743934895     -1.03819664309897
  H   -8.57794093787595      4.23527424138344     -1.65432791694427
  H   -6.65334002434762      5.63391688728525     -0.43675080079932
  C   -4.99584905620334      0.22736124661824      0.40968742354965
  C   -6.20958432747205     -0.47824544382343      0.34901993773663
  C   -6.28989185774000     -1.88427328549755      0.42616299794187
  N   -7.50745990171643     -2.54707811912408      0.42276940746478
  C   -7.62796798729490     -3.95222857278752      0.02405471960877
  H   -6.69160406728616     -4.48882878385306      0.20872682028815
  H   -8.39480019641412     -4.42126377161367      0.66824706072090
  C   -8.04690570880038     -4.07540005458294     -1.45120362818811
  H   -7.23170327641665     -3.68021081099100     -2.08382985085428
  H   -8.17122286926491     -5.14087787362186     -1.71178171937148
  C   -9.34485170925045     -3.29875229118314     -1.72169066411017
  H   -9.58421621826126     -3.31134125682070     -2.79802294896423
  H   -10.18304212245529     -3.80827300723388     -1.20858771038491
  C   -9.24809738314441     -1.85413406391630     -1.20618765891689
  H   -10.22395042479711     -1.34564592031268     -1.28957448676537
  H   -8.53017356596862     -1.27867779827617     -1.81700613846502
  C   -8.78151603214813     -1.84406249495302      0.25760657260504
  H   -9.52672441511926     -2.37313055176795      0.88058145925749
  H   -8.71366781601722     -0.82644536950413      0.65871065511909
  C   -5.06391930747463     -2.59091122466525      0.57209302308016
  C   -3.87061642146790     -1.90155964725966      0.64396444839943
  C   -3.75909304697994     -0.49493072892031      0.56190299744703
  C   -2.43308760731967      0.12870761156249      0.63060213251361
  N   -2.38048193907223      1.47448911136300      0.85445189483388
  C   -1.21962386828533      2.10777851385144      0.95178874248900
  N   0.00025396351158      1.40784454685770      0.84465033584507
  C   1.22051840798851      2.10712986745730      0.95155870596513
  N   2.38102340045761      1.47322901771412      0.85396918443432
  C   2.43290649689198      0.12742658889086      0.63003721372017
  C   1.24736644216290     -0.60348477488430      0.47985107742818
  C   -0.00012702167586      0.02950077554042      0.59834582764417
  C   -1.24798473978759     -0.60283127257204      0.48011710748267
  H   -1.24608306337245     -1.66516060149337      0.25140908554376
  H   1.24484802144058     -1.66582241602602      0.25120424735869
  C   3.75853877757192     -0.49698191894938      0.56113648671653
  C   3.86916391749088     -1.90370383283943      0.64287361134454
  C   5.06199076187894     -2.59384247636956      0.57085211067337
  C   6.28841128849951     -1.88798944968936      0.42500302929723
  N   7.50553923363305     -2.55158300545423      0.42140783485669
  C   7.62513548452121     -3.95671449670704      0.02235550197600
  H   6.68840276956269     -4.49273506183545      0.20684705261684
  H   8.39162727701830     -4.42642166026941      0.66646446007368
  C   8.04404915130748     -4.07979726520031     -1.45291777966299
  H   8.16768655363438     -5.14529216827203     -1.71374930706113
  H   7.22912268931172     -3.68392794652099     -2.08547395022576
  C   9.34250224178297     -3.30391904899368     -1.72317868655544
  H   10.18034941343168     -3.81409227885916     -1.21016404497798
  H   9.58189506568042     -3.31641161909096     -2.79950563625608
  C   9.24665187945730     -1.85935969650100     -1.20734270570486
  H   8.52910577500398     -1.28330746101407     -1.81804398273547
  H   10.22282852883813     -1.35147015391336     -1.29058881995715
  C   8.78004304626206     -1.84933716910319      0.25644309889273
  H   9.52490400609280     -2.37902189448984      0.87931064516744
  H   8.71281950559027     -0.83177048054833      0.65778780615874
  C   6.20901820629074     -0.48190546784065      0.34808078016229
  C   4.99575287258050      0.22452220265095      0.40900261350510
  N   4.96887440361586      1.60643969825938      0.32126156145630
  C   5.90304514584853      2.51774861434283     -0.10553859122681
  N   5.70341929353329      3.80111002562261      0.07120896821036
  C   6.70010085053755      4.54269644045107     -0.51352804888590
  C   7.69239398886242      3.85603827124520     -1.15000029275377
  S   7.37701292290398      2.13856866762580     -1.03664253716748
  H   8.58149959426789      4.23090028912855     -1.65156032695016
  H   6.65653035711715      5.63033289258403     -0.43543621757869
  H   4.05590967058424      2.01915223415508      0.58440629969392
  H   7.12343974942768      0.09524227557390      0.27292716100563
  H   5.04245210893101     -3.67642846755950      0.67698460943600
  H   2.96489672363756     -2.49075259263195      0.80472406360287
  N   1.20278664342346      3.43583074712891      1.15909331708583
  C   0.00097770555508      4.00292413126295      1.24629243075202
  N   -1.20114934326076      3.43647134179822      1.15932482050368
  H   0.00128215508260      5.08681730118555      1.41294974957074
  H   -2.96672712616834     -2.48916972255724      0.80589724136417
  H   -5.04509326909140     -3.67349243839087      0.67839166159429
  H   -7.12362681188204      0.09954886449886      0.27385477591911
