104
Coordinates from ORCA-job ./opt_b3lyp_cdz
  H   4.00033703269313     -1.57982295812911      0.12955827151939
  N   4.97214923453697     -1.21800083778707      0.17359732438394
  C   5.94020780094080     -2.18962347857800      0.26594570965018
  C   5.77871749031794     -3.55507229560329      0.28452596342166
  C   7.10070463019089     -4.10070976702832      0.40469654539402
  C   7.97689935908639     -3.05612155732909      0.45020462133833
  C   9.46586521124581     -2.94674618344494      0.56692805914663
  H   9.82773045390669     -3.98769902178648      0.63791963883894
  C   10.09957123884032     -2.30654914203715     -0.68414179588974
  H   11.19859283408101     -2.27913130886882     -0.59557460453489
  H   9.74480690227876     -1.27111536803449     -0.81860014200337
  H   9.84009978701863     -2.87103807100846     -1.59372547745620
  C   9.89241575838993     -2.20472002024888      1.84888641576209
  H   9.52415587861207     -1.16517186394337      1.84200763822556
  H   10.99131651933561     -2.17394442166066      1.93630913654990
  H   9.48737666596232     -2.69730969065837      2.74693066424723
  O   7.26180108799059     -1.86507315048913      0.36399317523473
  H   7.36960587531015     -5.15389267072598      0.45248246957316
  H   4.83126956079971     -4.08432211132618      0.22322096972801
  C   5.01299267649594      0.15725152785033      0.14967941375816
  C   6.23787469419952      0.85810852029623      0.16651846588218
  C   6.31305982054713      2.26123006634666      0.14179470315294
  N   7.52805606206562      2.93015839017123      0.21711489671318
  C   8.79866317678275      2.21413062396931      0.33049490601680
  H   9.46045527935008      2.82540405209468      0.97295843329401
  H   8.64790040215811      1.26314222441256      0.85489048797727
  C   9.46944903631598      2.01827956360296     -1.03783796031815
  H   8.83517059404884      1.36207542466525     -1.65986680474305
  H   10.43851506794373      1.50599129793928     -0.90945369991230
  C   9.66286128293309      3.37665387304150     -1.73042792998522
  H   10.42473402157479      3.95764563180620     -1.17584182873994
  H   10.05678235129879      3.23968095676775     -2.75126911526305
  C   8.35053725189702      4.17473720083845     -1.76345518259137
  H   7.63025192575326      3.68680108834187     -2.44469970905357
  H   8.52566399876700      5.19277964945105     -2.15296734620803
  C   7.71944874503004      4.26214847684643     -0.36254016397999
  H   8.38675698864054      4.83331943317429      0.30996744103527
  H   6.76910019695101      4.80475680284547     -0.40201214297715
  C   5.08569440480310      2.98334903673469      0.08140684349838
  C   3.88721628582196      2.30529720890600      0.05807688517929
  C   3.76726480659214      0.89410970590680      0.08758038341998
  C   2.43811133698013      0.28418278513657      0.05835937417091
  N   2.37206604598145     -1.08585623066580      0.05892448564509
  C   1.21722938861804     -1.72674709402010      0.03042575783797
  N   -0.00033444570256     -1.02286029858742     -0.00177249971363
  C   -1.21755907301158     -1.72727534529495     -0.03533921602369
  N   -2.37269013602547     -1.08688855689575     -0.06259959289248
  C   -2.43939775489303      0.28311242421282     -0.05938724315683
  C   -1.24808502133936      1.02367113829198     -0.02941597723267
  C   -0.00067097353122      0.38078879724438     -0.00040528783499
  C   1.24643368920446      1.02421682771135      0.02986263749659
  H   1.23444766484908      2.11029417819186      0.03294882597802
  H   -1.23662352375951      2.10975753174378     -0.03037827255831
  C   -3.76886339923844      0.89241381428461     -0.08736732613945
  C   -3.88958339839585      2.30347042441921     -0.05479794879638
  C   -5.08843883684583      2.98091074331418     -0.07665138987017
  C   -6.31540559517020      2.25824378150091     -0.13860038073965
  N   -7.53078367902292      2.92665299443600     -0.21243683335583
  C   -8.80097037876480      2.21010439104280     -0.32726523572835
  H   -9.46323030414427      2.82242911007189     -0.96824172666317
  H   -8.64969531308810      1.26039122003585     -0.85383110612142
  C   -9.47143810233482      2.01074039701434      1.04071378061931
  H   -8.83664389895428      1.35355542204110      1.66118035230730
  H   -10.44019269295993      1.49811772153213      0.91131738479757
  C   -9.66563151460111      3.36743628689510      1.73636803928086
  H   -10.42792954116548      3.94917956243917      1.18315664702454
  H   -10.05935352447063      3.22793563997065      2.75694355385130
  C   -8.35380040456879      4.16626647146700      1.77103549854258
  H   -8.52951534102722      5.18332307364832      2.16285157140495
  H   -7.63313826919729      3.67724689804190      2.45110375392043
  C   -7.72292167058830      4.25721504377279      0.37024765950002
  H   -6.77290001399225      4.80031340839201      0.41082436332922
  H   -8.39065099572244      4.82948957661377     -0.30090062485379
  C   -6.23945010345704      0.85522912290125     -0.16640961314862
  C   -5.01418234898466      0.15501696055954     -0.15111208935158
  N   -4.97259453403895     -1.22014997299741     -0.17812733817623
  C   -5.94016772372284     -2.19205625161463     -0.27245636119671
  C   -5.77803608994832     -3.55739002998267     -0.29368676405637
  C   -7.09975880748665     -4.10340014209568     -0.41509869551942
  C   -7.97642024579592     -3.05912164276069     -0.45877163366347
  C   -9.46541169080066     -2.95018558816747     -0.57556824624608
  H   -9.82680471144265     -3.99116698512419     -0.64851754046726
  C   -10.09963113016654     -2.31253762660695      0.67654311756391
  H   -11.19864897530088     -2.28545679330789      0.58782691715111
  H   -9.84006855956697     -2.87855133079160      1.58515289486029
  H   -9.74536093213624     -1.27718800214016      0.81293167035583
  C   -9.89204802263195     -2.20602193761764     -1.85625881547508
  H   -10.99094624777322     -2.17554761089074     -1.94382152035773
  H   -9.52421680391588     -1.16633280114493     -1.84744556008984
  H   -9.48664787891669     -2.69682350566057     -2.75511897883995
  O   -7.26188742506121     -1.86792126022867     -0.37010732740652
  H   -7.36817249211806     -5.15661069692467     -0.46496706325161
  H   -4.83034918152428     -4.08631807786680     -0.23326420820986
  H   -4.00059565479907     -1.58156369070737     -0.13486602582107
  H   -7.14411025641508      0.26119927666021     -0.18057280511412
  H   -5.07332793711878      4.06899524491276     -0.08253975457363
  H   -2.98396368267228      2.90796737874325     -0.01668944616018
  N   -1.20204332563017     -3.07614485096478     -0.03834610622963
  C   0.00029311632928     -3.64826690420288     -0.00430026776984
  N   1.20235774269130     -3.07563345993723      0.03084313929641
  H   0.00055003947537     -4.74514892625131     -0.00535299659812
  H   2.98126263178127      2.90937927106269      0.02132035293042
  H   5.06997785426756      4.07141000031072      0.08967526971852
  H   7.14285584284166      0.26454534378568      0.17935217415086
