110
Coordinates from ORCA-job ./opt_b3lyp_cdz
  H   -4.00000681263178      1.32005396899600      0.08893106410093
  N   -4.97249278668850      0.95924122181246      0.12287971132423
  C   -5.94111150006060      1.92741616954877      0.21280005071322
  C   -5.76849123181419      3.29544491291542      0.24446108227915
  C   -7.08218943208106      3.84417446504930      0.35155873398449
  C   -7.98578940569461      2.81027276717734      0.37895740478978
  Si  -9.85798865057770      2.71230223323313      0.50501343963086
  C   -10.49785897639627      4.48830365741259      0.66721194996198
  H   -10.21736801488198      5.09725280896695     -0.20857394364595
  H   -11.59870262332108      4.49605727080609      0.74314739592521
  H   -10.09449010648198      4.97905238429880      1.56873946822944
  C   -10.57293434081826      1.89377803386622     -1.05128949195689
  H   -10.14682410432926      0.88683678328352     -1.19781939434871
  H   -11.66986720803127      1.79102624638714     -0.97998011887513
  H   -10.34213993689548      2.48836283299109     -1.95105641277704
  C   -10.34891601345043      1.68961107718762      2.02677835397777
  H   -9.91551593235142      0.67603770548133      1.97881373259694
  H   -11.44542798966786      1.58522414923649      2.10046939071432
  H   -9.98611393531535      2.16330411911692      2.95425746342973
  O   -7.25842199666983      1.60953595605110      0.29043141493315
  H   -7.33647650935649      4.90123254881678      0.40455537531790
  H   -4.81582373388020      3.81722510262195      0.19956804224197
  C   -5.01373654190519     -0.41817754877691      0.10125056214798
  C   -6.23851403537243     -1.11652086224953      0.10801060965366
  C   -6.31494711552098     -2.52056572451668      0.08682287049385
  N   -7.53070578099555     -3.18686136766588      0.15219235178617
  C   -8.80348118245292     -2.47086817030483      0.24271481554725
  H   -9.46920184367631     -3.07112735130359      0.89141199579514
  H   -8.65877228830316     -1.50980857475970      0.74986725311901
  C   -9.46258751830351     -2.30248242333028     -1.13486587465557
  H   -10.43404278167562     -1.79075472736524     -1.02434415353871
  H   -8.82439922968950     -1.65574698934711     -1.76281680970956
  C   -9.64692676280880     -3.67347411678233     -1.80456777906058
  H   -10.41286039448437     -4.24593333874647     -1.24674932401283
  H   -10.03167071310640     -3.55554819106236     -2.83123688883282
  C   -8.33324641039781     -4.46975969917856     -1.81101855249978
  H   -7.60715546046559     -3.99338245036768     -2.49428008278424
  H   -8.50316496652406     -5.49510864708973     -2.18320731717398
  C   -7.71561477065556     -4.53009831916272     -0.40284841081187
  H   -6.76513147036844     -5.07339339606831     -0.42207497718426
  H   -8.38950870778615     -5.08809235022367      0.27411870568098
  C   -5.08707578922380     -3.24249188307251      0.03935822820899
  C   -3.88791265073155     -2.56519517312453      0.02523275580268
  C   -3.76780506570384     -1.15415726230053      0.05281869296592
  C   -2.43791076797202     -0.54419013968274      0.03540211633915
  N   -2.37148389330841      0.82546622221050      0.03656148882202
  C   -1.21618162347061      1.46613678052515      0.01961736244855
  N   0.00123489700482      0.76158941112022     -0.00116072181618
  C   1.21886465314955      1.46576258413113     -0.02221624300942
  N   2.37397417700812      0.82473764550400     -0.03891965793234
  C   2.43998291987248     -0.54493976147073     -0.03723310518867
  C   1.24844712188940     -1.28524738981147     -0.01913302595726
  C   0.00102237442039     -0.64179812177994     -0.00090113644918
  C   -1.24659780829319     -1.28486288636827      0.01755956949104
  H   -1.23509507749063     -2.37093245513490      0.01987547907474
  H   1.23661464874820     -2.37131354234352     -0.02108188605766
  C   3.76969005558857     -1.15531043380758     -0.05444133275283
  C   3.88939461822908     -2.56636902264520     -0.02622832327556
  C   5.08836085566721     -3.24401901086336     -0.04015444392315
  C   6.31643471784655     -2.52247009246301     -0.08807754356865
  N   7.53199321329787     -3.18913770397842     -0.15331336403261
  C   7.71656964646912     -4.53222143096812      0.40221311605577
  H   8.39030146640165     -5.09062604263128     -0.27457484812969
  H   6.76595369740987     -5.07527751756748      0.42165851178375
  C   8.33426778604606     -4.47151695271468      1.81034153390359
  H   7.60833253567524     -3.99465098368282      2.49342689964809
  H   8.50390992250098     -5.49676165058613      2.18293997269466
  C   9.64817129829389     -3.67560123084411      1.80352351672041
  H   10.03298899885649     -3.55737837824501      2.83013109059459
  H   10.41392177289573     -4.24849488259664      1.24590051916424
  C   9.46419735675603     -2.30481828382263      1.13329015029227
  H   10.43579753922398     -1.79342010445921      1.02251904420311
  H   8.82622977373401     -1.65764530325014      1.76101433360485
  C   8.80496963637109     -2.47354790161825     -0.24419159223016
  H   8.66051846240449     -1.51264094432401     -0.75170759187211
  H   9.47047209538203     -3.07425624050082     -0.89269472582259
  C   6.24040083150207     -1.11840899764488     -0.10985980730172
  C   5.01582507060437     -0.41970964687178     -0.10327759283494
  N   4.97495329767829      0.95771578045408     -0.12547312572789
  C   5.94382100359904      1.92560222537572     -0.21586937645457
  C   5.77156250576977      3.29366792229762     -0.24793714969838
  C   7.08538890828354      3.84201206196837     -0.35543138979919
  C   7.98870860642851      2.80786258174491     -0.38265046031585
  Si  9.86086254599287      2.70936688967071     -0.50897351467369
  C   10.50115022706539      4.48514695879876     -0.67195906205346
  H   10.09777066868163      4.97564092392145     -1.57362017258229
  H   10.22093818699468      5.09451059791064      0.20362804702549
  H   11.60198485605015      4.49259765766038     -0.74805625722172
  C   10.57585727696796      1.89126261632940      1.04752997883815
  H   11.67275385596325      1.78821159012758      0.97609732313580
  H   10.34534402200789      2.48624909278265      1.94710360206826
  H   10.14952004841141      0.88448207274356      1.19451286350669
  C   10.35128884079754      1.68598263591587     -2.03043286906524
  H   9.91765768972714      0.67253033911361     -1.98202995880428
  H   9.98845281596008      2.15942086532564     -2.95802890283649
  H   11.44776457434685      1.58130921623621     -2.10425812473304
  O   7.26103387439355      1.60734694681122     -0.29361657364803
  H   7.33995058595251      4.89898553542635     -0.40879599058247
  H   4.81904485622269      3.81571831899984     -0.20302789156872
  H   4.00257490408157      1.31880455057386     -0.09151148821602
  H   7.14420942345959     -0.52277628943132     -0.11227969768773
  H   5.07189909122687     -4.33198730662623     -0.04880450320034
  H   2.98349200593607     -3.17097148020841      0.00143609402244
  N   1.20395242330711      2.81446024511049     -0.02418269677191
  C   0.00162872987863      3.38723016789878     -0.00166807630788
  N   -1.20086574099093      2.81482868549050      0.02106479197738
  H   0.00179194850083      4.48406663011408     -0.00187740014533
  H   -2.98218175562481     -3.17007255203841     -0.00206836376908
  H   -5.07093772753785     -4.33046089770527      0.04851073538278
  H   -7.14215472369428     -0.52062901280739      0.11006169278546
