95
Coordinates from ORCA-job ./opt_b3lyp_cdz
  H   -4.00117651183612      1.36328281401526     -0.16839263531997
  N   -4.96806041900974      0.99734809300631     -0.23617468995237
  C   -5.93977251165421      1.96556118655985     -0.33913749288829
  C   -5.78826249234906      3.33184191444960     -0.35504925671812
  C   -7.11425363303930      3.86740724862069     -0.48061059354620
  C   -7.97996763131586      2.81484469720427     -0.53267420012143
  C   -9.45464488570622      2.68167071525049     -0.65795349317333
  H   -9.89628413922744      2.15500189499264      0.20695047075637
  H   -9.91120850736202      3.68047274720301     -0.71626049184703
  H   -9.74256139347283      2.12210745523683     -1.56606567124623
  O   -7.25835042252099      1.63114066900315     -0.44510769425546
  H   -7.39057804803156      4.91851185777506     -0.52767446582841
  H   -4.84649825637974      3.87068702594086     -0.28786455446861
  C   -5.00657972754760     -0.37737752723747     -0.23096226838433
  C   -6.23072245840924     -1.07723327054187     -0.28604455287647
  C   -6.30786203509527     -2.47985451713060     -0.28348236664517
  N   -7.52093647973608     -3.14340043494544     -0.39959264133286
  C   -8.78426990598022     -2.42274689933069     -0.55980356284176
  H   -8.60919386768828     -1.46888436606851     -1.07117358503490
  H   -9.42045215170439     -3.02842252437111     -1.23278503484890
  C   -9.51006836841422     -2.23525114715830      0.78121863945073
  H   -10.47270524724892     -1.72106321475395      0.61643566088512
  H   -8.90145571431334     -1.58431158576443      1.43357265547270
  C   -9.73378082795136     -3.59832532392484      1.45498543033065
  H   -10.16913407496279     -3.46824415534805      2.45977484483203
  H   -10.47312242069080     -4.17406717932658      0.86546624242751
  C   -8.42517016176807     -4.39896337856147      1.53674336643090
  H   -7.73305022454040     -3.91679469900845      2.25052933441619
  H   -8.61763835125500     -5.41922318252289      1.91187752526187
  C   -7.73587150695649     -4.47901760053584      0.16296284180383
  H   -8.37342134573073     -5.04732182380865     -0.54013399727572
  H   -6.78695772001410     -5.02020070827101      0.24050692663080
  C   -5.08285066037934     -3.20580175223200     -0.20205546580056
  C   -3.88524686863684     -2.53029641769851     -0.14056695248972
  C   -3.76258735376496     -1.11768815359978     -0.14886912490685
  C   -2.43590888178433     -0.51267700432983     -0.08137281719345
  N   -2.36790059880763      0.86019206080129     -0.06728048820857
  C   -1.21686010428058      1.49632336383844     -0.00698753640768
  N   0.00106246425959      0.79556759914848      0.04697190723884
  C   1.21768003489721      1.49746603349607      0.10976291262927
  N   2.36988453716586      0.86294935555528      0.15960902439388
  C   2.44069647978384     -0.50997823492351      0.15162197846993
  C   1.25017389238227     -1.24982850857152      0.08576547910096
  C   0.00245130011354     -0.60857748312620      0.03428131980780
  C   -1.24370654570384     -1.25126574124142     -0.03099005898300
  H   -1.23123481416587     -2.33732207883303     -0.04268283948415
  H   1.24043651846314     -2.33584617561623      0.06816455717620
  C   3.76855395352883     -1.11321688202929      0.20997325359132
  C   3.89158017835664     -2.52573992200113      0.22982667248530
  C   5.09073478696945     -3.19968118984680      0.27516260116149
  C   6.31710587379109     -2.47208722225947      0.30700246723395
  N   7.53305134131846     -3.13351521864655      0.40282984785967
  C   8.79990736332077     -2.41078219663152      0.51967806165215
  H   8.63704962057780     -1.44769995522246      1.01761070003450
  H   9.45189473451855     -3.00442184285232      1.18829268097402
  C   9.49366666375281     -2.24803530837205     -0.84136766763379
  H   10.46004317686391     -1.73157083485506     -0.70875331733730
  H   8.86982107988031     -1.60856552860167     -1.49068341412660
  C   9.70093586210757     -3.62322932597529     -1.49542405638331
  H   10.45357789505830     -4.18889951759659     -0.91303828614913
  H   10.11270824985582     -3.51175090558048     -2.51231766261652
  C   8.39040665671535     -4.42392879014690     -1.53197722286989
  H   7.68191985453761     -3.95397429073552     -2.23782094959196
  H   8.57343429963439     -5.45091553030833     -1.89322789487161
  C   7.73346364566897     -4.47900322485148     -0.14120577462026
  H   6.78219440632203     -5.01966365766324     -0.18769250763751
  H   8.38655482127516     -5.03630139272552      0.55647231191880
  C   6.23929525097118     -1.06971997898286      0.28567733218385
  C   5.01358601494326     -0.37121737891234      0.25110335836949
  N   4.97395811795827      1.00336582675833      0.23637334497333
  C   5.94818037306086      1.97364836137642      0.27666138315282
  C   5.79666803633495      3.33983825855540      0.25381260617840
  C   7.12559051923977      3.87835936318343      0.32319423466582
  C   7.99290148941243      2.82747375615240      0.38222018280335
  C   9.47078687155802      2.69752995212499      0.46639475159220
  H   9.92842617726053      3.69744150629814      0.48044036942959
  H   9.88609666887762      2.14471368424555     -0.39524824182827
  H   9.78654140658700      2.16561426902511      1.38181507046772
  O   7.26944838297260      1.64199162216013      0.35386309093002
  H   7.40280000116811      4.93027043363745      0.32865156434688
  H   4.85317592954222      3.87679216141826      0.19616531332970
  H   4.00473000302061      1.36783074697504      0.20305419361684
  H   7.14387136164217     -0.47579753800476      0.27397520372100
  H   5.07874810530405     -4.28667676902384      0.32764282120997
  H   2.98632155301162     -3.13204909970656      0.22414426166227
  N   1.19923551447421      2.84904064725370      0.11768895289367
  C   -0.00093000518874      3.41108544034953      0.06458164644902
  N   -1.20038152774312      2.84748725474003      0.00312064718093
  C   -0.00826886582732      4.94104353487148      0.13283013845038
  F   -1.04328234610948      5.46439447918415     -0.54453552704148
  F   -0.11730955618147      5.34054491107137      1.42035540966734
  F   1.12164409719393      5.46960747389012     -0.36318149057881
  H   -2.98094101852985     -3.13597292039378     -0.09095639626947
  H   -5.06927786707958     -4.29374290978362     -0.22591789017076
  H   -7.13534478746628     -0.48370069449406     -0.30763436076144
