100
Coordinates from ORCA-job ./opt_b3lyp_cdz
  H   4.02768801480565     -1.26605544160389     -0.21857167952398
  N   4.99872842906171     -0.90078435842392     -0.26155813773779
  C   5.97898362159110     -1.86209498276045     -0.32483840509762
  C   5.84584224823958     -3.22992693426098     -0.27851885889901
  C   7.17559995311855     -3.75574926420177     -0.40712001101433
  C   8.02706428051381     -2.69655671978469     -0.51964946882385
  C   9.49806731025458     -2.55138505396208     -0.67251592396578
  H   9.76578510222473     -2.02209266323778     -1.60462327255595
  H   9.94680554570884     -1.98825898304141      0.16553928048635
  H   9.96572911241417     -3.54641714330185     -0.70120712167583
  O   7.29222633351576     -1.51898588771411     -0.47084223579428
  H   7.46458073663084     -4.80457940971093     -0.41349495678929
  H   4.91246620592115     -3.77506873206288     -0.16781286498944
  C   5.03608974727827      0.47559845932354     -0.23925533840902
  C   6.25982332021784      1.17840524770840     -0.26078992967750
  C   6.33307869649758      2.58103999398605     -0.24444116836573
  C   5.10631627321449      3.30233227608285     -0.18699251510000
  C   3.90854454683576      2.62191656900378     -0.15468832381919
  C   3.79083367902564      1.21058778498669     -0.17337208121839
  C   2.46161144089127      0.59722482260276     -0.12632496180952
  N   2.39499207786763     -0.76938921482353     -0.14790429745838
  C   1.23637377112838     -1.41327918445734     -0.10790620846544
  N   1.22233247318286     -2.75224390062000     -0.12411387687106
  C   0.01953861297339     -3.34641507493587     -0.07657645445950
  N   -1.18482350388170     -2.74165016809342     -0.02243281002451
  C   -1.19776931096836     -1.40289750185624     -0.00722323328881
  N   0.02139888929115     -0.70032921872073     -0.04567265142185
  C   0.02708828073968      0.70067884468506     -0.01917805283276
  C   -1.21740916116223      1.34829770105764      0.04498709626382
  C   -2.40923737480804      0.61114713741872      0.07209300241204
  N   -2.35465888692012     -0.75697207960474      0.04274787006339
  C   -3.73583789875308      1.23448451285711      0.12881385405910
  C   -3.84682516241164      2.64607853325011      0.10376372652161
  C   -5.04204139010691      3.33178705816737      0.14162586933542
  C   -6.27129136446796      2.61708898304008      0.21240849381676
  N   -7.48382921007197      3.29098692673236      0.30328124535489
  C   -8.75047575178323      2.57761713253805      0.46497868942341
  H   -9.39690796919642      3.20493252793731      1.10796688308958
  H   -8.58467225194843      1.64068651257038      1.01027891346491
  C   -9.45719461751871      2.34694608706293     -0.87974779878861
  H   -10.42388260191667      1.84078319798160     -0.71282267467875
  H   -8.84112688152510      1.67378567550457     -1.50194183224234
  C   -9.66682625944876      3.68760163232013     -1.60143009322313
  H   -10.08916109933774      3.52577063114364     -2.60723696904172
  H   -10.41185258831531      4.28494263791732     -1.04116293390652
  C   -8.35397902839578      4.48044544633512     -1.69133660171646
  H   -8.53690283396800      5.48756449570209     -2.10499536315257
  H   -7.65352254107444      3.97093924937968     -2.37748919202700
  C   -7.68495595879304      4.60567992146766     -0.31084800950003
  H   -8.33001555566641      5.20236586492629      0.36142534484013
  H   -6.73181065809674      5.13901021587358     -0.39337133808730
  C   -6.20151339764149      1.21413821360647      0.23453922677971
  C   -4.98176199241583      0.50838878441355      0.20505028907387
  N   -4.96109859797257     -0.87203530297504      0.23052273891691
  C   -5.98817315820225     -1.78838945131057      0.24075951138202
  C   -6.01175550320879     -3.08406510418409     -0.21298027041795
  C   -7.29502320918011     -3.61146650564851      0.16209832054207
  C   -7.97231315340457     -2.61423701010495      0.80002726888814
  C   -9.33088517943464     -2.49526696861817      1.39204594348887
  H   -9.94132853011760     -1.73410394717611      0.87352564179614
  H   -9.28974715399598     -2.21188943906150      2.45836142084725
  H   -9.85424857025480     -3.45940421563336      1.31432673984164
  O   -7.17086077604759     -1.48688933321205      0.86221066151781
  H   -7.67413940866212     -4.61231136605836     -0.03320841863564
  H   -5.21411500691511     -3.58336771821837     -0.75628422492260
  H   -4.00380820740468     -1.25443657101653      0.12680883846751
  H   -7.11057724578476      0.62595777065324      0.26791530051693
  H   -5.02130964047132      4.42005244385042      0.15603410251051
  H   -2.93795088319790      3.24483363680984      0.05548443634872
  H   -1.20151027792729      2.43380027621379      0.07303924962726
  C   1.27313138276163      1.34191212183760     -0.05827594422254
  H   1.26443656852346      2.42752956894500     -0.03395819030458
  C   -0.01138449990813     -4.79420597683548     -0.08056304776230
  N   -1.21277232555106     -5.46691405291210     -0.00824442198951
  C   -0.99518801307065     -6.80995005852500     -0.02379306635519
  C   0.37995263609047     -7.02343390295471     -0.11087481693420
  C   1.00121476824911     -5.75337084729850     -0.14583149654559
  H   2.06189967136720     -5.52979525250560     -0.21298984073281
  H   0.86921468529150     -7.99414871692897     -0.14480789605065
  H   -1.81888672998381     -7.51747639950379      0.02796636451033
  H   -2.09596038188839     -4.97412691337954      0.05625298688473
  H   3.00171839461061      3.22487791099645     -0.12455116499358
  H   5.09014561271391      4.39048395035776     -0.20844785324699
  N   7.54884960160176      3.24976802019942     -0.32902703328775
  C   8.81495418331347      2.53009991705442     -0.46633774084220
  H   8.65325669368440      1.58829881052639     -1.00418464044473
  H   9.47263583412696      3.14885392514944     -1.10613058324481
  C   9.50107883000780      2.30981480184409      0.89069744060266
  H   8.87258135342401      1.64551421643270      1.50987965725631
  H   10.46761330347507      1.79756647009997      0.74272115840065
  C   9.70659022066815      3.65660451266115      1.60209017904155
  H   10.11312282495866      3.50286870133635      2.61567041496890
  H   10.46281924158836      4.24475084610826      1.04711150095125
  C   8.39660682096213      4.45682688730837      1.66453556809066
  H   8.57864710544066      5.46748528759273      2.06993517094374
  H   7.68365751930470      3.95823984115181      2.34581361746488
  C   7.74830723286680      4.57019031026010      0.27315278934185
  H   8.40664181697581      5.15530821821271     -0.39639220169599
  H   6.79742220976253      5.11018316343701      0.33564333323936
  H   7.16662315283444      0.58803318419208     -0.27166045433115
