99
Coordinates from ORCA-job ./opt_b3lyp_cdz
  H   -3.98321035048961      1.24925272922892     -0.19081244223381
  N   -4.95630216805628      0.88992187197370     -0.24343000342375
  C   -5.92538473474809      1.86150281493593     -0.31237398895255
  C   -5.76976249382059      3.22797150497568     -0.30377449007353
  C   -7.09582972768768      3.76971861489634     -0.40137109780834
  C   -7.96582270366077      2.72106714900715     -0.46195473765202
  C   -9.44259465943376      2.59480096232296     -0.56905189323226
  H   -9.87422657207905      2.05294647269204      0.29164179076777
  H   -9.74545174216072      2.05330926338078     -1.48333461004571
  H   -9.89681933271478      3.59591889409374     -0.60199508020385
  O   -7.24695566046516      1.53375289657036     -0.40726510128959
  H   -7.37056084403006      4.82217327890200     -0.42425801233498
  H   -4.82398557133362      3.76011515577657     -0.23796346585930
  C   -4.99867027399982     -0.48556145183332     -0.24837164088553
  C   -6.22425621364738     -1.18393167201549     -0.29678756660939
  C   -6.30118019765412     -2.58645436360942     -0.30711301849918
  N   -7.51734850915902     -3.25021420440627     -0.41798025824491
  C   -7.72674233192989     -4.58252257198516      0.15395305065070
  H   -8.37914612755909     -5.15146350458091     -0.53502915966054
  H   -6.77809958672319     -5.12647051053901      0.21554859880609
  C   -8.39009709896099     -4.49655593434720      1.54016234239568
  H   -8.57896016452007     -5.51498900728333      1.92229730522648
  H   -7.68348843608293     -4.01417820170483      2.23947504807744
  C   -9.69745448492074     -3.69188188514545      1.48002892017110
  H   -10.44904663272775     -4.26670403448500      0.90513884487203
  H   -10.11448860803896     -3.55789539848520      2.49214391959815
  C   -9.48122424032808     -2.33125686432481      0.79879065692938
  H   -8.85842774583813     -1.68121054143919      1.43848840974799
  H   -10.44497202649503     -1.81389872977333      0.65052701386909
  C   -8.78034847149479     -2.52495795045260     -0.55475957080343
  H   -9.43193793451969     -3.12890947669452     -1.21458981548975
  H   -8.61070614257273     -1.57262583889458     -1.07113964187341
  C   -5.07678490718758     -3.31279645957472     -0.24836752951146
  C   -3.87729419107049     -2.63735954760940     -0.19080277268889
  C   -3.75563085810253     -1.22632649959441     -0.18341725136176
  C   -2.42663366350670     -0.61702091265565     -0.11499662624719
  N   -2.36319174593567      0.75134252728582     -0.11404180636107
  C   -1.21019867541563      1.39674502434336     -0.05433459463560
  N   -1.20491366034001      2.73893991145655     -0.05351536488041
  C   -0.00734800288611      3.33338419735151      0.00712870441978
  N   1.19992931951729      2.74570585554468      0.06483771512112
  C   1.21997294018641      1.40553087133700      0.06843040842496
  N   0.00626174599651      0.69332925341717      0.00955590409193
  C   0.00866558673494     -0.70881486255968      0.01235107997667
  C   -1.23556934066043     -1.35606613822776     -0.04965400909637
  H   -1.22206036521514     -2.44215876523723     -0.04371879792110
  C   1.25593686292118     -1.34839455069595      0.07617578534322
  C   2.44353713652363     -0.60327429613174      0.13536453676054
  N   2.37875705445539      0.76503648329808      0.12705729797204
  C   3.77224161574259     -1.21694671806561      0.20309155893854
  C   3.88775278481113     -2.62846670221499      0.22455606917910
  C   5.08448388804290     -3.30976692698550      0.27352051227010
  C   6.31254831668590     -2.58947681104439      0.30669896141396
  N   7.52745367763140     -3.25745232938040      0.40552694413620
  C   8.79515188939829     -2.53713249762756      0.52280656267576
  H   8.63562033607299     -1.58033151393342      1.03417748466737
  H   9.45134776731788     -3.13920227823589      1.17984076119437
  C   9.48208936807987     -2.35661483233949     -0.83971283001099
  H   10.45004247489641     -1.84318062071392     -0.70574209172739
  H   8.85563143812401     -1.70804305203182     -1.47737379095798
  C   9.68395989182538     -3.72313047075604     -1.51352410950193
  H   10.09088681733148     -3.59848773570034     -2.53092384317530
  H   10.43861389730354     -4.29782228928814     -0.94254488814652
  C   8.37184019605490     -4.52116311143296     -1.55398008611164
  H   7.66020750801131     -4.03970110151608     -2.24882372922411
  H   8.55116094086004     -5.54309271065190     -1.93131588326864
  C   7.72318411999257     -4.59449679112314     -0.16011972285189
  H   8.37966631584353     -5.16314207703813      0.52526517728130
  H   6.77062676024428     -5.13300634532412     -0.20827829316070
  C   6.24101671744901     -1.18671596674561      0.28564290607352
  C   5.01849901266101     -0.48312484895633      0.24853434502715
  N   4.98479240051182      0.89433247410735      0.23642831976015
  C   5.97202039785414      1.85059938183971      0.24972810604287
  C   5.85737879699479      3.21002923241751      0.07830356166924
  C   7.18437829008422      3.73670700050882      0.23196594043446
  C   8.01688373842412      2.68524293056208      0.47835995494467
  O   7.27244546010103      1.51325048181695      0.49403734930502
  C   9.47744363911623      2.54353195010387      0.71323382700426
  H   9.96052640548777      1.91515367895649     -0.05663066123566
  H   9.95289987636579      3.53495859271258      0.68846455878610
  H   9.69446937695447      2.08548070997321      1.69476606645354
  H   7.48479716352683      4.78002213554311      0.16242707734404
  H   4.93808378568672      3.74983685461934     -0.13141394926225
  H   4.01561844224487      1.26143772328529      0.18059994238565
  H   7.14875613513608     -0.59754510626938      0.28174283322677
  H   5.06656040042348     -4.39679300226990      0.32722746626197
  H   2.98000195146291     -3.23065882155675      0.21464637169668
  H   1.24783504297953     -2.43428355887710      0.07330290658583
  C   0.01318699653190      4.79055456196926      0.01434992610955
  C   1.05667200922980      5.68530549987179      0.08646953706122
  C   0.47315323771567      6.98660001020877      0.05792913319299
  C   -0.88025583179158      6.78672744114590     -0.02932572616824
  O   -1.17495988337949      5.46578609457359     -0.05626729617437
  H   -1.73059962806238      7.46092869883486     -0.07937827694936
  H   0.98399121826214      7.94551201201225      0.09706796967217
  H   2.10610452870607      5.41563875733543      0.15423456866320
  H   -2.97189820987611     -3.24289811704097     -0.16137936706025
  H   -5.06395938280191     -4.40042783320734     -0.28838926485904
  H   -7.12887613433315     -0.58975277302935     -0.30478536448254
