17
Coordinates from ORCA-job ./opt_b3lyp_cdz
  C   1.27266884311162     -9.20339550446753     -5.09406110374038
  N   -0.03056454833780     -9.37915148124432     -5.27593641785890
  C   -0.82134035685967     -8.37813427434859     -4.83303359390448
  C   -2.22603135652077     -8.40208521103400     -4.94644205144859
  N   -3.01238118571947     -7.41846944941053     -4.51194601349692
  C   -2.45554611979157     -6.35236944087266     -3.93926741764218
  C   -1.06470680183793     -6.20464753173289     -3.76502429723360
  N   -0.50740388031791     -5.12083710888375     -3.18341579444866
  C   0.81711311045430     -5.13526446609817     -3.09477789542018
  N   1.67271634481033     -6.08191555084006     -3.50577835574749
  C   1.14166841900869     -7.16339346566270     -4.08446432780605
  N   1.90603834630004     -8.16533373126967     -4.52977933818894
  N   -0.26430727974915     -7.24970954029004     -4.22918224442971
  H   1.92015578639994    -10.01229772097689     -5.45153655354610
  H   -2.67999822016764     -9.27674370572706     -5.41611724914773
  H   -3.09783752315453     -5.54502794464753     -3.58237433018585
  H   1.27579642237151     -4.25838387249358     -2.62356301575421
