99
Coordinates from ORCA-job ./opt_b3lyp_cdz
  H   -4.01265302432044      1.28015613618057      0.17639563456925
  N   -4.98062712748624      0.90977642277229      0.22295240822273
  C   -5.97225713097058      1.86170762197293      0.19656995038281
  C   -5.86282295414868      3.21459340614747     -0.02224843837840
  C   -7.19228192822868      3.74085420357767      0.11049929490224
  C   -8.02096035245492      2.69504845808649      0.39150940418471
  C   -9.48175334510608      2.55543407515585      0.62627712195123
  H   -9.70001291682245      2.12724011618377      1.62087451820273
  H   -9.96030901172621      1.90180875517174     -0.12519307278524
  H   -9.96070861312271      3.54384194709899      0.56936178041788
  O   -7.27185999889373      1.52759608753085      0.45011729470331
  H   -7.49673491505848      4.77980904519775      0.00351217151189
  H   -4.94573326977106      3.75060239048602     -0.25063843582109
  C   -5.00989633546696     -0.46728018359782      0.25965753185901
  C   -6.23042848004491     -1.17400715344393      0.30119455382382
  C   -6.29773151787451     -2.57628270537855      0.35043323307035
  C   -5.06700444251395     -3.29327413427242      0.34439310510055
  C   -3.87222341085918     -2.60950505576167      0.28858022430324
  C   -3.76126954075801     -1.19826810442075      0.23479884774672
  C   -2.43485192835083     -0.58293562602518      0.15426371983035
  N   -2.37146397394146      0.78644050051808      0.14982026511154
  C   -1.21525751917485      1.42757079946072      0.08269838841932
  N   -1.20080191757367      2.77094627181295      0.08253678626947
  C   -0.00173338425727      3.36689542563352      0.01903425248438
  N   1.19974392484027      2.76937048792674     -0.04764258404230
  C   1.21430246250225      1.42889870732465     -0.05609773598574
  N   2.37063731206345      0.78525124148537     -0.12699758797971
  C   2.43217870545176     -0.58281823818963     -0.14018831496265
  C   1.24280308958228     -1.32451515224629     -0.06962213680480
  C   -0.00109981715269     -0.68083679771542      0.00628035281503
  C   -1.24666807248752     -1.32405920829885      0.07740163073495
  H   -1.23627725776198     -2.40993408449194      0.06182609392738
  N   -0.00100787522382      0.72103099424451      0.01126301323286
  H   1.23145827608425     -2.41039808796097     -0.06358297407000
  C   3.75775404909565     -1.19985353146962     -0.22337199580115
  C   3.86752771662882     -2.61115010973118     -0.27604683186036
  C   5.06172705527972     -3.29574680300598     -0.33559766818752
  C   6.29291209186462     -2.57968498923889     -0.34721461823058
  N   7.50525837101106     -3.25041831335606     -0.45396207729734
  C   8.77657391728131     -2.53407051072718     -0.55568537347516
  H   9.42990313886988     -3.12520573521622     -1.22541488632944
  H   8.62188938996254     -1.56583153490522     -1.04655380608976
  C   9.46413493374919     -2.38608545223885      0.81042895736258
  H   10.43491039535904     -1.87530104188559      0.68729718625352
  H   8.84122408047653     -1.74747214654617      1.46149314717587
  C   9.65827779247832     -3.76747972943809      1.45546291391619
  H   10.40977068786603     -4.33434612116552      0.87260895435264
  H   10.06585309924873     -3.66647633013374      2.47521229008733
  C   8.34180021688521     -4.55881938529662      1.47912664007505
  H   7.63246523001260     -4.08793227765575      2.18352022934025
  H   8.51524163652889     -5.58928343063847      1.83539708911710
  C   7.69326366078335     -4.59996353356440      0.08390643381250
  H   6.73753309508487     -5.13369608776661      0.12111390986533
  H   8.34673498439193     -5.15832079050099     -0.61275645050845
  C   6.22676331149425     -1.17732132201802     -0.29825366314385
  C   5.00684703524523     -0.46993481572742     -0.25226658618057
  N   4.97830332552910      0.90712262736203     -0.21511779685825
  C   5.97085441483606      1.85809208364085     -0.19358344392334
  C   5.86497742057476      3.21002306311531      0.03272749578196
  C   7.19321298942339      3.73619371417035     -0.11223294987173
  C   8.01792976642079      2.69105595447682     -0.40701595022387
  O   7.26742014525050      1.52438828990410     -0.46290177046941
  C   9.47604648413333      2.55153025552699     -0.65792623345038
  H   9.68333479963405      2.12702047123750     -1.65642583435090
  H   9.95616463343555      3.53944248378679     -0.60232751359829
  H   9.96220436327278      1.89474525366793      0.08587148086815
  H   7.49950570600460      4.77444985897199     -0.00380150257307
  H   4.95085845756745      3.74549159405557      0.27383712219663
  H   4.01039933938440      1.27736921662239     -0.16091558561047
  H   7.13675884642887     -0.59177831041538     -0.28039399959836
  H   5.04010976584973     -4.38109068663661     -0.41582019220716
  H   2.95709689014369     -3.20935940931376     -0.28656164798204
  C   -0.00236801987971      4.82961552049907      0.02213102316114
  C   1.09862933676874      5.64427072457531     -0.08240889391239
  O   0.73223146000909      6.94606488996456     -0.04721389513686
  C   -0.63476884467336      6.97560614337301      0.08452297990650
  C   -1.13703321436429      5.71281494986774      0.13067420832232
  H   -2.17452376670691      5.41150275188081      0.23345237135236
  H   -1.07850588761507      7.96536212287806      0.12956074242768
  H   2.15688418501615      5.43297074781942     -0.18874083642809
  H   -2.96204620771998     -3.20807599261911      0.30457204814934
  H   -5.04647606336328     -4.37849912645486      0.42656481608182
  N   -7.51087156045491     -3.24617392992758      0.45280298242583
  C   -7.69774575102059     -4.59575683558177     -0.08535081348938
  H   -6.74204502425599     -5.12974577577258     -0.11967876993424
  H   -8.35347264270546     -5.15383210199588      0.60942492482745
  C   -8.34206918456997     -4.55460028386626     -1.48252576737016
  H   -7.63041726222977     -4.08413640196396     -2.18486279857413
  H   -8.51485755246912     -5.58506004611511     -1.83911822423700
  C   -9.65826957968171     -3.76270154066200     -1.46300678583739
  H   -10.06276684966320     -3.66183087282225     -2.48399331322110
  H   -10.41172954480829     -4.32906865321594     -0.88221459941838
  C   -9.46542945219917     -2.38120926926137     -0.81780551596787
  H   -8.84022091379369     -1.74307792852453     -1.46713778541971
  H   -10.43632483944250     -1.86992438310264     -0.69774375408552
  C   -8.78210440532504     -2.52913316162223      0.55043035942202
  H   -9.43779494789517     -3.11969355473679      1.21836634684126
  H   -8.62836994612276     -1.56080857905920      1.04142115249849
  H   -7.13999115284408     -0.58796185686493      0.27961225143163
