99
Coordinates from ORCA-job ./opt_b3lyp_cdz
  H   -4.00881073809643     -1.27436668620280      0.19316263825305
  N   -4.97858666063011     -0.90617309808641      0.23225892772021
  C   -5.97023771183847     -1.85673487309174      0.19089332570725
  C   -5.86479118266462     -3.20423327291264     -0.06142264806478
  C   -7.19226897927409     -3.73409784046517      0.07893541168431
  C   -8.01646381210777     -2.69505069434527      0.39590514919000
  C   -9.47420056705604     -2.56073188387005      0.65207348785914
  H   -9.67971792492430     -2.15351111642910      1.65806205872384
  H   -9.95413828644149     -3.54769829978973      0.58020382915969
  H   -9.96194627298387     -1.89130700533875     -0.07930787340221
  O   -7.26635769156343     -1.52953680568684      0.47153815846073
  H   -7.49953325767479     -4.76993658646895     -0.04872013404058
  H   -4.95116753256483     -3.73316560964960     -0.31837404775686
  C   -5.01004125350659      0.47186916105107      0.26186029535850
  C   -6.23160547154407      1.17680444912939      0.29106005394419
  C   -6.30084686712860      2.57940616153947      0.33301227422650
  N   -7.51577215363603      3.24853789301713      0.42351976995609
  C   -7.70010803051920      4.59413437740039     -0.12543702206806
  H   -8.36275598969057      5.15581532422155      0.55980610798346
  H   -6.74495965274529      5.12944236989878     -0.15481082886378
  C   -8.33194663304515      4.54278431900163     -1.52795758174591
  H   -7.61338586067681      4.06900096202291     -2.22095784138600
  H   -8.50341379222852      5.57058814052458     -1.89276819368417
  C   -9.64693088287368      3.74866780056691     -1.51498414568669
  H   -10.40655483584430      4.31737872108643     -0.94461441647229
  H   -10.04207753177616      3.64042328293852     -2.53888170844513
  C   -9.45736971837046      2.37173131219526     -0.85910098187447
  H   -8.82514156155753      1.73070172099458     -1.49872003676071
  H   -10.42839243611346      1.85938357526595     -0.74446920104506
  C   -8.78658083616488      2.53000228783777      0.51419741600152
  H   -9.44939302979382      3.12382577028447      1.17215397901843
  H   -8.63575243619730      1.56527523858912      1.01320023177408
  C   -5.07110229145249      3.29725205232903      0.33298138546585
  C   -3.87491638801159      2.61428469736562      0.28887498409967
  C   -3.76247604571059      1.20332357823833      0.24212492007691
  C   -2.43444817322157      0.58733696573301      0.17214745341410
  N   -2.37103854551026     -0.78073447124765      0.17889537725245
  C   -1.21280719440903     -1.42319392621094      0.12280489421718
  N   -1.19633205694705     -2.76348538718642      0.13416041732614
  C   0.00654208739273     -3.36141523891504      0.08095170040790
  N   1.20525155886516     -2.76223361403202      0.01039978133306
  C   1.21680896893023     -1.42059703595370     -0.00769093563040
  N   2.37232196494471     -0.77667984697251     -0.07943430892189
  C   2.43335153969448      0.59165430065346     -0.10052844893292
  C   1.24257327207552      1.33210130633009     -0.04259816465083
  C   -0.00086084108394      0.68750542755486      0.03454620444927
  C   -1.24726884001314      1.33009109275634      0.09448337535745
  H   -1.23843025727711      2.41575386555996      0.06929377320164
  N   0.00106274386052     -0.71414442347719      0.05179556483868
  H   1.22913328414966      2.41794274864822     -0.05292643318920
  C   3.75907884423311      1.20829971531479     -0.18029113784204
  C   3.87079780008096      2.62029647071139     -0.20127722278514
  C   5.06489476413124      3.30462630685974     -0.26483490610180
  C   6.29434648674146      2.58715641171256     -0.31553685486648
  N   7.50601752851848      3.25819404648399     -0.43064585604719
  C   8.77394104036514      2.54090152662497     -0.56376916800131
  H   9.42019252454882      3.14439508216374     -1.22927502703722
  H   8.61031688106217      1.58352235780720     -1.07273959921952
  C   9.47850788034698      2.36263547560301      0.79000963784593
  H   8.86196243536825      1.71258900298643      1.43575719533084
  H   10.44595620693024      1.85159748918373      0.64389245661704
  C   9.68544494985895      3.72984331584716      1.46087170591382
  H   10.10525385430491      3.60647641332060      2.47318227447018
  H   10.43162843077972      4.30620110142422      0.88049911050201
  C   8.37204794371568      4.52482697652122      1.51739224685067
  H   8.55362619438070      5.54733408687098      1.89210280152374
  H   7.67022573859690      4.04199765461320      2.22120798077687
  C   7.70596642892808      4.59601595874892      0.13167574144735
  H   6.75308598964667      5.13280721298832      0.19115053110626
  H   8.35280223564965      5.16541100651768     -0.56218626572040
  C   6.22692800800711      1.18434087171837     -0.29350278895616
  C   5.00685025298608      0.47710004940420     -0.24006158239691
  N   4.97691699810018     -0.89973247008234     -0.22555020548996
  C   5.96476146737587     -1.85519170856739     -0.26311484356941
  C   5.84988493204481     -3.21813327413448     -0.12335307635510
  C   7.17776311194895     -3.74034664546826     -0.28292210655188
  C   8.01073183961551     -2.68327997758138     -0.50241476378284
  C   9.47174609812076     -2.53571478185096     -0.73053558923378
  H   9.94788156183761     -3.52709704614744     -0.72415141379969
  H   9.69113398778702     -2.05833609919127     -1.70234981142696
  H   9.95228808454186     -1.92233899944677      0.05289493055018
  O   7.26575174185834     -1.51131239477262     -0.49398849994970
  H   7.47770804592992     -4.78504062431153     -0.23634417928296
  H   4.93015059323028     -3.76387051150846      0.06831699195074
  H   4.00980311370242     -1.26966158735120     -0.15570878588329
  H   7.13617997196063      0.59763914743143     -0.29995856271438
  H   5.04359782467681      4.39170861407012     -0.31564922422068
  H   2.96169959253105      3.22008769761398     -0.17694833425357
  C   0.00886588688388     -4.81946398915899      0.10408074517063
  C   1.11742932438226     -5.71026141152775      0.02718354480293
  N   0.73827889442300     -6.98216685119603      0.08132881408152
  N   -0.61213597767890     -6.91924776947041      0.19461463786365
  C   -1.09758332336240     -5.65826177355687      0.21223124107551
  H   -2.15467000391738     -5.42780480786619      0.30162935172842
  H   -1.13941806958601     -7.78109777708236      0.25700858247029
  H   2.16830710878484     -5.44982353688530     -0.06800915160530
  H   -2.96539938113682      3.21372170435669      0.30908256995349
  H   -5.05224086265255      4.38285490404903      0.41071654280233
  H   -7.14041257273501      0.58945041142302      0.26734711964172
