98
Coordinates from ORCA-job ./opt_b3lyp_cdz
  H   -4.01662584619631     -1.28603332660591      0.17139668678758
  N   -4.98257301658107     -0.91359049701741      0.22796254637987
  C   -5.97644518635434     -1.86397341517258      0.23027411978255
  C   -5.87519590562467     -3.21814021799986      0.01664805162594
  C   -7.20105543622213     -3.74190991240196      0.18971549382568
  C   -8.01995470979243     -2.69293091005317      0.48695386956545
  C   -9.47371278093485     -2.54936855191578      0.75986117812270
  H   -9.66418912345401     -2.11257308242133      1.75632061349174
  H   -9.95510529291782     -3.53752915485309      0.72406705621948
  H   -9.97130459168730     -1.90134857736308      0.01600690276293
  O   -7.26783481194381     -1.52633226789936      0.51789237333279
  H   -7.50988968714866     -4.78095278859810      0.09757627925890
  H   -4.96564309431290     -3.75700535651126     -0.23397484278913
  C   -5.01061950197079      0.46384348765886      0.23879573675195
  C   -6.23063188963425      1.17108779079400      0.27312741177800
  C   -6.29818191420535      2.57423436610403      0.29327079333856
  C   -5.06708166794623      3.29093120005375      0.26261714475826
  C   -3.87284018307121      2.60638539695429      0.21623542788173
  C   -3.76152296569670      1.19380360595243      0.19484725103443
  C   -2.43605470904221      0.57753175579202      0.12772431111381
  N   -2.37328778098125     -0.79252682567000      0.12290822457364
  C   -1.21816248795926     -1.43457636066414      0.06600289876877
  N   -1.20357842891335     -2.77816269954034      0.06471226837449
  C   -0.00136655438921     -3.36951616092078      0.00856116391504
  N   1.19940965492427     -2.78013104042110     -0.04970616726996
  C   1.21498894011445     -1.43456997144217     -0.05373838008088
  N   2.37038451673949     -0.79545733493015     -0.11217338626801
  C   2.43527894597841      0.57533114592895     -0.11992857425590
  C   1.24514452038839      1.31536458797347     -0.06010508083670
  C   -0.00061482012126      0.67259564865694      0.00357093264183
  C   -1.24529879084765      1.31690836342992      0.06501816012935
  H   -1.23263459701127      2.40277066814988      0.05756936061001
  N   -0.00108030918224     -0.72976892219950      0.00567799766453
  H   1.23320099074208      2.40128783207417     -0.05793662843280
  C   3.76136591129163      1.18917238915456     -0.18735074644815
  C   3.87496480954266      2.60185187664280     -0.19890158715310
  C   5.06985382033080      3.28487364810561     -0.24669376553900
  C   6.29969825010309      2.56634847776898     -0.28960807462637
  N   7.51216587091417      3.23597088180358     -0.38698476888437
  C   7.70795950897116      4.57427174904229      0.17585285268678
  H   6.75393398933196      5.10912871184171      0.23334141446582
  H   8.35557870101006      5.14510476388406     -0.51603154841677
  C   8.37025652580465      4.50318223723100      1.56336967823019
  H   7.66686408918452      4.01959342128622      2.26509011464997
  H   8.54957091616333      5.52585408784261      1.93853589756748
  C   9.68466545904830      3.70968447941005      1.51078944717609
  H   10.10107252077339      3.58636362444162      2.52445000885389
  H   10.43217400829688      4.28696137192312      0.93315974799773
  C   9.48149830750101      2.34250089838610      0.83880742650039
  H   8.86336687748153      1.69147663179745      1.48210222239299
  H   10.44995129924241      1.83262792525913      0.69570275173021
  C   8.78158492679333      2.52048871250246     -0.51727804439549
  H   8.62112539049196      1.56342622874658     -1.02766329956885
  H   9.42892963555457      3.12562656932885     -1.18016886228920
  C   6.23005268351635      1.16332955373005     -0.27829982875491
  C   5.00924199749741      0.45733274044818     -0.24178623701872
  N   4.98006782148413     -0.91982776534685     -0.23903547941308
  C   5.97368040057673     -1.87089355649081     -0.25776692357998
  C   5.87408884084102     -3.22628882189046     -0.05230550075468
  C   7.19780143167878     -3.74916880729508     -0.24308106540178
  C   8.01388009008346     -2.69846104865496     -0.54196267606031
  O   7.26200222205139     -1.53139496983217     -0.55691279221445
  C   9.46465301713581     -2.55359195691507     -0.82969528689747
  H   9.97067475317951     -1.91086397376191     -0.08691718806002
  H   9.94587425283119     -3.54218951385783     -0.80585936267272
  H   9.64446374452766     -2.11013556993806     -1.82520184144819
  H   7.50665379063405     -4.78907021245003     -0.16158244442489
  H   4.96742205010039     -3.76752968006895      0.20358146996448
  H   4.01518094520014     -1.29265850494097     -0.17512611948953
  H   7.13868169270844      0.57544887130719     -0.28269248507448
  H   5.05008726078105      4.37218267037379     -0.29171923487772
  H   2.96642826879874      3.20268416454083     -0.18049131419414
  C   0.00067279714751     -4.83186054370554      0.01195352837397
  C   -1.06797795226237     -5.68529467918993      0.10298545893902
  O   -0.65634395855528     -6.95612262304791      0.07423514078759
  N   0.74613506824323     -6.98508424693821     -0.04233854752865
  C   1.11269845590111     -5.72837673984972     -0.07621286603824
  H   2.16654576016165     -5.47330702846691     -0.16648940679110
  H   -2.13680072653286     -5.51348280273095      0.19371348591528
  H   -2.96321314274430      3.20580804200954      0.20885048482460
  H   -5.04592811405466      4.37781852202466      0.31660357733306
  N   -7.51018444568797      3.24520125155620      0.38840733097387
  C   -8.78142578042620      2.53099725655559      0.50712544657783
  H   -9.43140836488123      3.13287805851636      1.17041104887287
  H   -8.62526097216940      1.57041875735548      1.01222580966307
  C   -9.47436215672673      2.36284084756556     -0.85380604021789
  H   -10.44448602737904      1.85383780271842     -0.71910417918991
  H   -8.85394448065833      1.71478855172056     -1.49790967133036
  C   -9.67149049623014      3.73460470728848     -1.51821294232688
  H   -10.08269706325924      3.61843800345040     -2.53483882843347
  H   -10.42104234161724      4.30958561339281     -0.94094515702554
  C   -8.35542189558232      4.52601783474329     -1.55872824034908
  H   -7.64906751634812      4.04554820610945     -2.25961772673493
  H   -8.53089981833633      5.55131232153791     -1.92850415707512
  C   -7.70059940588124      4.58730641606815     -0.16721995447795
  H   -8.35096202508082      5.15506599072357      0.52462888857047
  H   -6.74529948608764      5.12073931532308     -0.21625785169408
  H   -7.14015282968699      0.58454388346490      0.26899846566785
