98
Coordinates from ORCA-job ./opt_b3lyp_cdz
  H   -3.97939223335595      1.25124285226203     -0.18537925976069
  N   -4.95205772262133      0.89225041889555     -0.23316510671866
  C   -5.92073895313753      1.86485362851164     -0.29689890927024
  C   -5.76404046152090      3.23113785212623     -0.29162347552176
  C   -7.09040488190034      3.77394464005510     -0.37811166593514
  C   -7.96172462695103      2.72599125053615     -0.42927626767154
  C   -9.43946680438146      2.60098539698242     -0.52349313323892
  H   -9.89301499558108      3.60247605838554     -0.55342532607013
  H   -9.86403775109114      2.06030386262738      0.34138347251910
  H   -9.75062872669968      2.05903564037387     -1.43467135778584
  O   -7.24332628126054      1.53817760895934     -0.37924339442514
  H   -7.36438610963632      4.82659118264294     -0.40012901599510
  H   -4.81752043759664      3.76293243936099     -0.23491783289619
  C   -4.99533816682749     -0.48336794935014     -0.24564967926412
  C   -6.22178988901904     -1.17979700326755     -0.29298426770650
  C   -6.30107971600248     -2.58220669651353     -0.31079357151072
  N   -7.51825283107011     -3.24303671173477     -0.42056819762800
  C   -7.72672435876130     -4.58154730919755      0.13724501815555
  H   -6.77872203932789     -5.12763313921648      0.18847576145898
  H   -8.38284785084201     -5.14164677636673     -0.55536706204262
  C   -8.38409577841326     -4.50981445049687      1.52699907968164
  H   -7.67424503905671     -4.03532998267788      2.22842146618715
  H   -8.57196827307852     -5.53207837320139      1.89917113179799
  C   -9.69107707915353     -3.70368976140392      1.48061245331279
  H   -10.44514851449810     -4.27186749264647      0.90241262724489
  H   -10.10434703442783     -3.58040214830883      2.49559470400805
  C   -9.47646287662156     -2.33605999149233      0.81313087802543
  H   -8.85018157994934     -1.69350668049071      1.45699830370332
  H   -10.44019959677066     -1.81606064239250      0.67453104109019
  C   -8.78150201737152     -2.51585088219966     -0.54531720540953
  H   -9.43576176136475     -3.11284696460094     -1.20873393880848
  H   -8.61374293371246     -1.55838879411738     -1.05266310316243
  C   -5.07721300657972     -3.31046097107669     -0.26062657655356
  C   -3.87689417845387     -2.63704410833155     -0.20395257074218
  C   -3.75278707018911     -1.22596626801524     -0.18935206760053
  C   -2.42256274233347     -0.62040255087128     -0.12288940581767
  N   -2.35573377212096      0.74980950425735     -0.12032815812537
  C   -1.20137872637172      1.38907258196244     -0.06288480108534
  N   -1.18730455197696      2.73429062349216     -0.06189207869775
  C   0.01487432787324      3.31621666475681     -0.00362306153805
  N   1.21507074146751      2.73473104892733      0.05513511113578
  C   1.22713700276203      1.39081650462147      0.05729665368335
  N   2.38121435132247      0.75112453538094      0.11533085845744
  C   2.45056920109458     -0.61770769475343      0.12007971010779
  C   1.26078419528496     -1.36146138387636      0.06052488493094
  C   0.01416992230088     -0.71986151303201     -0.00106776917175
  C   -1.23354003915262     -1.36226391422408     -0.06121266175316
  H   -1.22393141147133     -2.44839552491921     -0.05587749513571
  N   0.01278703725177      0.68329764535238     -0.00251894878714
  H   1.25192619270277     -2.44766158036644      0.05891703233572
  C   3.78123825190961     -1.21898697152305      0.18676386426490
  C   3.91016841542953     -2.62997352108459      0.19546298907516
  C   5.11251394846033     -3.29906905218846      0.25300457977231
  C   6.33388251702338     -2.56612585490773      0.31078375152921
  N   7.55271657383629     -3.22361566026436      0.42206399336064
  C   8.81293681876525     -2.49262906502966      0.55549945709907
  H   9.46678739099442     -3.09092170415139      1.21816176263827
  H   8.63975018782854     -1.53849829425285      1.06725361537824
  C   9.51232744790499     -2.30307383986337     -0.79931241935275
  H   10.47356988928713     -1.78023923696801     -0.65431124336595
  H   8.88612187424853     -1.65942299294232     -1.44212460249978
  C   9.73451661464281     -3.66634945101941     -1.47316164930134
  H   10.48841868043973     -4.23487956665326     -0.89505859655362
  H   10.15122074367023     -3.53620915785002     -2.48588735387187
  C   8.43060688324629     -4.47687858877815     -1.52889349588409
  H   8.62353157637397     -5.49650570245455     -1.90573041904937
  H   7.72182023381721     -4.00114559298702     -2.23054401219347
  C   7.76802668701270     -4.55833553908426     -0.14211693690903
  H   6.82211424832270     -5.10736451103069     -0.20008009777209
  H   8.42338105439903     -5.11991188700981      0.55004232731767
  C   6.25025496212034     -1.16427593347699      0.29848413126225
  C   5.02149255712743     -0.47119007186055      0.24958648670514
  N   4.97393793306619      0.90307998247071      0.24182267445709
  C   5.93872729844581      1.88000237612234      0.31193896550212
  C   5.77544187627183      3.24527173242821      0.30677950486153
  C   7.09892160944795      3.79306543345330      0.40255392183681
  C   7.97461453687452      2.74883333148050      0.45853786749886
  C   9.45230754121329      2.63052941229231      0.56212072807369
  H   9.88510211437115      2.09311688010348     -0.30077260216601
  H   9.90088003961678      3.63412016257569      0.59639581419126
  H   9.76021101039649      2.08872171623162      1.47453355270539
  O   7.26213062659670      1.55788186070688      0.40280041681041
  H   7.36734988971593      4.84705162614264      0.42725551177272
  H   4.82760381908375      3.77473334051023      0.24444079698042
  H   4.00064563113176      1.25970615512468      0.18904579709229
  H   7.15191068723331     -0.56560114332345      0.30469365873319
  H   5.10516522783967     -4.38667352862009      0.29349693144223
  H   3.00772223391520     -3.23998210633412      0.16656805321543
  C   0.02113971889723      4.78979702438731     -0.00413254720044
  N   1.04956745515908      5.59461091901922      0.04461426067704
  C   0.49960435867330      6.86095398937215      0.01735822829829
  C   -0.86031453941251      6.75588568683084     -0.04770653371252
  O   -1.17959099777426      5.43464840232449     -0.06211894863109
  H   -1.68602968304339      7.45908103240859     -0.08774263570636
  H   1.11525098545505      7.75687890014434      0.04623348892288
  H   -2.97245657102225     -3.24426420540411     -0.18185256873510
  H   -5.06569432863223     -4.39783033777378     -0.30624250975398
  H   -7.12557020081289     -0.58442155792407     -0.29368555839500
