98
Coordinates from ORCA-job ./opt_b3lyp_cdz
  H   3.97132037747772      1.16687366419246      0.18270634625681
  N   4.93959110534179      0.79842444369188      0.22788127701081
  C   4.97167534455582     -0.57834933999606      0.24573555488688
  C   6.19309452289189     -1.28360784611841      0.29145883851946
  C   6.26312683392877     -2.68647229246457      0.31647621068933
  N   7.47618745591773     -3.35470803240394      0.42453573212462
  C   8.74492095271361     -2.63601758231425      0.54269067614557
  H   9.39594688060219     -3.23360866863494      1.20878375560501
  H   8.58502652691481     -1.67424826691759      1.04439329569417
  C   9.43897146243992     -2.46965672343053     -0.81796694825368
  H   10.40704182529587     -1.95655609043854     -0.68386644280984
  H   8.81683530475784     -1.82577829848453     -1.46455388096474
  C   9.64178394631858     -3.84276550206668     -1.47791630726341
  H   10.05405339136053     -3.72847780084046     -2.49435878755353
  H   10.39267646086076     -4.41332043197684     -0.89791274339233
  C   8.32865318110163     -4.63920394529590     -1.51723388255782
  H   7.62107624064237     -4.16359690457433     -2.22020254554683
  H   8.50814390388626     -5.66502047947700     -1.88373122284313
  C   7.67324512740121     -4.69797522723114     -0.12592151817709
  H   6.72084438084698     -5.23678627553860     -0.17263081286035
  H   8.32614001672948     -5.25946292923413      0.56863938839861
  C   5.03418233689377     -3.40598780399032      0.27568108471819
  C   3.83886971397723     -2.72379702153674      0.21933317027840
  C   3.72416155533346     -1.31175850053939      0.19653825494408
  C   2.39652676776207     -0.69952443373885      0.12832181222897
  N   2.33117506284294      0.67126809863273      0.12466046467024
  C   1.17428714061734      1.30824671899308      0.06568175000111
  N   1.14993856512491      2.65212753549179      0.06294332655407
  C   -0.05469492500193      3.23727327863382      0.00349255054630
  N   -1.25041878678290      2.65086686947764     -0.05532515679250
  C   -1.25643597230016      1.30601793265702     -0.05626673644441
  N   -2.40857030548214      0.66372352637723     -0.11473590563199
  C   -2.47612523974519     -0.70537635758197     -0.11898811282651
  C   -1.28496395779263     -1.44621546599230     -0.05846792690282
  C   -0.03998471804485     -0.80146100425724      0.00407239225519
  C   1.20793646518869     -1.44181528079188      0.06520286208963
  H   1.19873206696909     -2.52773644241611      0.05842965617955
  N   -0.04022109260544      0.60138507237650      0.00517707494480
  H   -1.27318137779772     -2.53240618669138     -0.05684728614988
  C   -3.80574496028303     -1.30839126345681     -0.18595539368764
  C   -3.93291130043419     -2.71959087492416     -0.19143861284956
  C   -5.13442695248629     -3.39018503364324     -0.24902204206631
  C   -6.35660405355282     -2.65872855114799     -0.31028152801515
  N   -7.57439364669862     -3.31787044625849     -0.42153347985732
  C   -8.83522609474651     -2.58903097295442     -0.56088220716268
  H   -9.48609177061268     -3.18989304619985     -1.22418252527468
  H   -8.66173385645511     -1.63595284721487     -1.07448985734776
  C   -9.53934181994372     -2.39701239942952      0.79114714238085
  H   -10.50102925985253     -1.87629313960042      0.64152801098384
  H   -8.91644921210192     -1.75042549050594      1.43424957072976
  C   -9.76146242485656     -3.75883727250964      1.46799328128935
  H   -10.18152010459909     -3.62661484884794      2.47906625857403
  H   -10.51273392277894     -4.33008650486428      0.88913287068383
  C   -8.45651365026988     -4.56725589372513      1.52999808351505
  H   -8.64914580864909     -5.58620970743574      1.90881858751082
  H   -7.75068410448028     -4.08876250659387      2.23276390390059
  C   -7.78920017660548     -4.65142780564562      0.14560631546631
  H   -8.44115915895494     -5.21628601821229     -0.54710133222009
  H   -6.84245031176999     -5.19847661213894      0.20842061680356
  C   -6.27466867434799     -1.25667095796990     -0.30109566767929
  C   -5.04675561691191     -0.56209195991686     -0.25207681656971
  N   -5.00060574315368      0.81218934884913     -0.24745256676342
  C   -5.96624348827355      1.78803439224899     -0.32076459566928
  C   -5.80412459519438      3.15346038199595     -0.31656003516344
  C   -7.12784335371323      3.69999739007708     -0.41645064288807
  C   -8.00246281821982      2.65490375500614     -0.47391561169125
  C   -9.47973630143901      2.53503523347549     -0.58131347453721
  H   -9.91440186492386      1.99865299810520      0.28129286844707
  H   -9.92926078224090      3.53811275992363     -0.61842374297598
  H   -9.78463171790347      1.99148176619081     -1.49370235219797
  O   -7.28904737422482      1.46464429998211     -0.41498154088326
  H   -7.39728000199352      4.75369851896837     -0.44292783350787
  H   -4.85666162039280      3.68337935376099     -0.25222394390951
  H   -4.02789044545106      1.17009093390848     -0.19318394784263
  H   -7.17704115027955     -0.65908660239720     -0.30993985011379
  H   -5.12582951172957     -4.47788295857656     -0.28694146264178
  H   -3.02975397584355     -3.32842085396066     -0.15965728114198
  C   -0.03215589883548      4.71335498535041      0.00444114307560
  N   -1.08028345860279      5.49476571998473     -0.04852544001230
  C   -0.70647586549351      6.81040211312893     -0.02975908747904
  C   0.64569258588100      7.05088162150365      0.03843773247440
  S   1.51524723752982      5.55731658756661      0.08282061375816
  H   1.15852129569039      8.01069999933397      0.06423044508724
  H   -1.47496876150145      7.58362651962448     -0.06868563970626
  H   2.93065902187728     -3.32523249557263      0.20551865316368
  H   5.01455685864062     -4.49293266883614      0.32855479602822
  H   7.10136603551438     -0.69564338217209      0.28571745929524
  C   5.92163263953936      1.75907314289482      0.28277970500095
  C   5.78772454542208      3.12753713585519      0.26318896937472
  C   7.12197770535502      3.65072441135401      0.34895069276480
  C   7.97622022844539      2.58983671288165      0.41366545911570
  C   9.45143605761333      2.44185440751642      0.51368843455099
  H   9.86983394064725      1.88655671077888     -0.34491548411841
  H   9.92103023226829      3.43612987505122      0.53581819862425
  H   9.75098913456528      1.90348827638656      1.43084074951104
  O   7.23894077363323      1.41338955725837      0.37316310935398
  H   7.41176704147163      4.69926415237180      0.36119131586344
  H   4.85217327389379      3.67643160788549      0.19757123265544
