99
Coordinates from ORCA-job ./opt_b3lyp_cdz
  H   4.00229399438287      1.26195491397125      0.19083646668128
  N   4.97252746084281      0.89572891444136      0.23141360262270
  C   5.96207649377915      1.84915199867287      0.19380069696162
  C   5.85324454402181      3.19734754583288     -0.05269503303617
  C   7.17961559441847      3.72939399807959      0.08885743935990
  C   8.00649591487562      2.69097675993718      0.40086732850262
  C   9.46463477405882      2.55908943511512      0.65609574129694
  H   9.94208913841594      3.54754202316607      0.58799400904116
  H   9.67152838154155      2.14846637435562      1.66046429045301
  H   9.95397795383737      1.89373236131462     -0.07798648051628
  O   7.25923163112451      1.52337442439290      0.47203726480448
  H   7.48364993610146      4.76673116033439     -0.03412516453038
  H   4.93867089455673      3.72663594662596     -0.30551618612396
  C   5.00753093990426     -0.48187676402638      0.26291370626491
  C   6.23144775562584     -1.18333099874494      0.29278445677430
  C   6.30518137732921     -2.58536164946203      0.33689758549213
  N   7.52253768278166     -3.25074047675581      0.42825178545116
  C   7.71113247670068     -4.59489687079818     -0.12266373277952
  H   6.75792961287864     -5.13376303264991     -0.15097401979729
  H   8.37709597045541     -5.15484751594402      0.56081572719430
  C   8.34039650459010     -4.53981360213971     -1.52622630160796
  H   8.51512149104639     -5.56659577351622     -1.89243779118740
  H   7.61889851137799     -4.06798988315996     -2.21751282165561
  C   9.65238024625955     -3.74071780346134     -1.51461738096386
  H   10.04554840464168     -3.63003529844739     -2.53903473411543
  H   10.41503720744134     -4.30708393661283     -0.94591877690842
  C   9.45855602737847     -2.36513449573196     -0.85713740927968
  H   10.42776419351141     -1.84907089433831     -0.74371991958006
  H   8.82273994938632     -1.72602808505668     -1.49509405749907
  C   8.79065233785018     -2.52729500215140      0.51714720999706
  H   8.63674558726786     -1.56352204582125      1.01709973296381
  H   9.45700069778383     -3.11899392525941      1.17347054368693
  C   5.07793329965088     -3.30733673350294      0.33836605632230
  C   3.87956636683229     -2.62824475292110      0.29345391105755
  C   3.76233105584608     -1.21772501024922      0.24455606379286
  C   2.43189775587162     -0.60662687021358      0.17416151014024
  C   1.24750334032096     -1.35424301833223      0.10135421658061
  C   -0.00242893968921     -0.71747669274955      0.03938160068200
  C   -1.24499855579617     -1.36540910497743     -0.03445923383890
  C   -2.43681652059502     -0.62522930300709     -0.09689208795706
  N   -2.37420159525074      0.74142877783389     -0.08266700473961
  C   -1.22186494786302      1.38903728347465     -0.01270092408288
  N   -1.21911438430622      2.72952106506043     -0.00018587291554
  C   -0.02604224125657      3.33012765534161      0.06864759107450
  N   1.17916447823956      2.74058714825035      0.12419305384441
  C   1.20377416941048      1.39861579745198      0.11777967944888
  N   2.36451297014862      0.76204217625194      0.17552595215672
  N   -0.00606125033406      0.68475429299727      0.05028263119236
  C   -0.00837635857288      4.80174608240647      0.08986328847353
  N   -1.13743366768656      5.52364835160489      0.00649292045012
  N   -0.71821789352299      6.79110227571430      0.06097803921256
  C   0.63747688865754      6.92075366199439      0.17743985580119
  C   1.13909396639848      5.63589119969030      0.19924540822900
  H   2.17078816940752      5.31352530860715      0.28567675629053
  H   1.11749553190786      7.89426208728814      0.23422937150988
  H   -1.40474264122236      7.53398447447571      0.01344706828483
  C   -3.76617356155785     -1.23242221723965     -0.17607595359228
  C   -3.89097171764023     -2.64287171722285     -0.19278694276961
  C   -5.09200127795158     -3.31473023967140     -0.26221420074533
  C   -6.31401578462996     -2.58460549743950     -0.32447540391398
  N   -7.53132105202319     -3.24522486844935     -0.44779042229624
  C   -7.74791919288833     -4.57813792900913      0.11998351894985
  H   -8.39912315310704     -5.14315661549175     -0.57338607037984
  H   -6.80137007540322     -5.12543970035555      0.18437580508035
  C   -8.41728086607202     -4.49375478439583      1.50341208592925
  H   -8.61112779071799     -5.51256513529234      1.88211762499487
  H   -7.71234409289575     -4.01543302996153      2.20719105643708
  C   -9.72176099936056     -3.68472071278595      1.43934888755666
  H   -10.47243163113709     -4.25557060266353      0.85925957189978
  H   -10.14328099250956     -3.55223442825335      2.44982928104366
  C   -9.49783323896920     -2.32293328313778      0.76294201131680
  H   -8.87599202645158     -1.67679308378926      1.40747922495828
  H   -10.45915469206744     -1.80190751267397      0.61164274647031
  C   -8.79114684273185     -2.51518845051156     -0.58784686604378
  H   -8.61568755784064     -1.56188069820361     -1.10055499505735
  H   -9.44187584867172     -3.11482814462251     -1.25247822401459
  C   -6.23414067994575     -1.18255111584936     -0.30468987821736
  C   -5.00695890834938     -0.48736410248491     -0.24377479737928
  N   -4.96053325467936      0.88733618048423     -0.22862867827687
  C   -5.92440919566100      1.86369931333556     -0.30166217812996
  C   -5.76112114155565      3.22928546109842     -0.28991785200421
  C   -7.08413522189191      3.77737477418473     -0.39232349027603
  C   -7.95953957356189      2.73340677089675     -0.45875406918760
  C   -9.43646685555728      2.61529353335532     -0.57318678618550
  H   -9.88524293955591      3.61889959278576     -0.60625907297104
  H   -9.87535499167405      2.07399015533199      0.28423783774410
  H   -9.73804547710128      2.07728570897487     -1.49001226522689
  O   -7.24738090202677      1.54236540487845     -0.40289106240325
  H   -7.35346071503831      4.83127969464866     -0.41467974152930
  H   -4.81268138537499      3.75671900527685     -0.21910223896356
  H   -3.98570443119768      1.24269454935777     -0.16638523870916
  H   -7.13719233117689     -0.58584568562330     -0.31448150928779
  H   -5.08211699889573     -4.40215797469829     -0.30879966876616
  H   -2.98699329024022     -3.25052199272386     -0.16053048467352
  H   -1.23111795668271     -2.45156764578077     -0.04020487405863
  H   1.24351058998458     -2.44005901696132      0.08148126875584
  H   2.97209316450738     -3.23070290543723      0.31446506877661
  H   5.06269098718710     -4.39289295047627      0.41787185148532
  H   7.13835417717552     -0.59317437774060      0.26763244425289
