98
Coordinates from ORCA-job ./opt_b3lyp_cdz
  H   -4.00026514170934      1.25973643593524     -0.18013120269942
  N   -4.97134751141593      0.89860115249363     -0.23745748183720
  C   -5.93983470684944      1.87180726092874     -0.31665143458866
  C   -5.78153351335066      3.23753092982775     -0.31529889578311
  C   -7.10639641308682      3.77997258189790     -0.42106575775638
  C   -7.97775972653951      2.73217635937096     -0.47895179439925
  O   -7.26123639605547      1.54407276138206     -0.41461004016759
  C   -9.45429963996617      2.60778445951930     -0.59139630215282
  H   -9.75429293314602      2.06213209114707     -1.50415597017185
  H   -9.90649486905588      3.60952189899053     -0.63139716611614
  H   -9.89028390277953      2.07123088248184      0.27041727407105
  H   -7.37815467343414      4.83293609839043     -0.45112363450335
  H   -4.83649307150907      3.77154340454484     -0.24927034761161
  C   -5.01370285707201     -0.47529430344018     -0.23977639410439
  C   -6.23970972029227     -1.17332418989616     -0.29145759447663
  C   -6.31796916385065     -2.57543655885048     -0.29808427127271
  N   -7.53339485483935     -3.23797380011337     -0.41172783785402
  C   -7.74698712511801     -4.57095850397703      0.15719374747340
  H   -6.79865417268882     -5.11435703106561      0.22718884256676
  H   -8.39291356957430     -5.13977582609203     -0.53791854292777
  C   -8.42269250193221     -4.48571848595734      1.53747207332935
  H   -7.72237476119265     -4.00358817631676      2.24325376184652
  H   -8.61449285506106     -5.50447344080496      1.91720642094947
  C   -9.72969010056252     -3.68140350526451      1.46638181879348
  H   -10.15537514272450     -3.54803699569755      2.47493597327436
  H   -10.47615465367701     -4.25615783625859      0.88482419438760
  C   -9.50797527816175     -2.32039785190977      0.78776377319312
  H   -8.89094123586675     -1.67037572924323      1.43303361569817
  H   -10.47045297002517     -1.80320975842448      0.63132604632071
  C   -8.79559986477308     -2.51313643773760     -0.55978700519251
  H   -8.62182633723849     -1.56065069668628     -1.07433990046002
  H   -9.44089602450812     -3.11740383671005     -1.22543399158783
  C   -5.09393382187388     -3.30402130889742     -0.23157884789159
  C   -3.89448070919146     -2.63061306632990     -0.17161321464719
  C   -3.77076629033425     -1.21874002495184     -0.16833323875143
  C   -2.44366850773830     -0.61270844543518     -0.09858664111329
  N   -2.37875105195526      0.75626333658044     -0.09554504211898
  C   -1.22802907427513      1.40078794854839     -0.03500348976277
  N   -0.01025929524333      0.69953707518525      0.02848971471738
  C   1.20168557522634      1.40932091497016      0.08628347464627
  N   2.36025709415648      0.77648202470761      0.14285038813629
  C   2.42884297055680     -0.59496729537673      0.15212208879075
  C   1.24307032210420     -1.34009892430019      0.09210036116095
  C   -0.00762542668535     -0.70341899870631      0.02937851003343
  C   -1.25006386205529     -1.35099788620822     -0.03403152195526
  H   -1.23576399065016     -2.43714678302854     -0.03090459183826
  H   1.23722225112598     -2.42608547308937      0.08501558153784
  C   3.75839780046083     -1.20414401806537      0.22001405301356
  C   3.87649905246247     -2.61573328686872      0.25789545836299
  C   5.07449381394605     -3.29422743772142      0.30091596015789
  C   6.30220666808895     -2.57168421050266      0.30968511194625
  N   7.51849630478702     -3.23623348393549      0.39928989918111
  C   7.70978391725679     -4.58136351465382     -0.14857791985413
  H   8.36822359212134     -5.14189572949765      0.54158021747474
  H   6.75607750389446     -5.11863449379612     -0.18593696472508
  C   8.35242039488383     -4.52742790587248     -1.54607393903140
  H   7.63801857734578     -4.05511571061873     -2.24435520067154
  H   8.52914642105452     -5.55463619232771     -1.90991886074665
  C   9.66529066799567     -3.73010410636852     -1.52266677388813
  H   10.42208149489748     -4.29732753799334     -0.94714339843261
  H   10.06764030758879     -3.62006884207119     -2.54351885993667
  C   9.46750678508562     -2.35413031153822     -0.86725507324453
  H   10.43637051847788     -1.83956464430272     -0.74499519867717
  H   8.83848115388626     -1.71410172027508     -1.51103617722629
  C   8.78710674190841     -2.51494598511790      0.50090786270181
  H   9.44599680403658     -3.10819999669257      1.16323862007743
  H   8.63047090394660     -1.55114663227611      0.99975622786564
  C   6.22735619116262     -1.16926902010756      0.27550176904444
  C   5.00379782895569     -0.46827208392314      0.24615478836991
  N   4.97168218094831      0.90972789166671      0.22305397238997
  C   5.96846624029255      1.85705132720535      0.18823531560389
  C   5.88093283565254      3.19436649112437     -0.11623198458549
  C   7.20067066462915      3.72744973881049      0.07644494518185
  C   8.00343163382233      2.69854547357785      0.47188274732500
  O   7.24709106214458      1.53783858661753      0.54913383755182
  C   9.44600568336778      2.57138877603417      0.80613253230955
  H   9.93092783736053      3.55545625667117      0.72882370188653
  H   9.59859562629947      2.19474008790973      1.83309313379558
  H   9.96895508679458      1.87980016253111      0.12118800603373
  H   7.51691101643599      4.75789910843519     -0.07080770047135
  H   4.98518731419077      3.71678533792750     -0.44072066167762
  H   4.00548996683914      1.28013100251315      0.16830444030666
  H   7.13405061514480     -0.57823998627625      0.25914026786461
  H   5.05924541456556     -4.38039265617356      0.37025381150000
  H   2.96960713507735     -3.21927163842328      0.26855983152351
  N   1.17654663608537      2.75599579833912      0.08429625523156
  C   -0.02870345499355      3.33604562468145      0.02871675236486
  N   -1.22268849535301      2.74524471730943     -0.03196678344541
  C   -0.00606990341452      4.81675146659563      0.04045424087954
  N   -1.11601904906247      5.52858794154406     -0.05515964206241
  O   -0.71178701987844      6.84927357512285     -0.00808679392227
  C   0.63277929733216      6.90498966579429      0.11627407549921
  C   1.15169625354272      5.64929539485880      0.15295170397690
  H   2.18211296514727      5.32722827027226      0.24872834786369
  H   1.06156266075824      7.90281262587081      0.16493894984693
  H   -2.98992720771960     -3.23713779866429     -0.13603136906395
  H   -5.08281484053602     -4.39175302046827     -0.26773518540787
  H   -7.14356857545907     -0.57808604128715     -0.30423630083481
