103
Coordinates from ORCA-job ./opt_b3lyp_cdz
  H   4.04132141956274      0.75274681686752     -0.15873979974163
  N   4.98807229058829      0.35496355031543     -0.26377509717656
  C   6.01423944266628      1.26727130468094     -0.39362124037577
  C   6.04068390146161      2.60315937025593     -0.08103256902939
  C   7.31446538492429      3.08875359667400     -0.53482798785829
  C   7.98257271166743      2.03041146140973     -1.07645241592966
  C   9.32819222651245      1.85137499709369     -1.68239254348346
  H   9.26427452260057      1.45214253067344     -2.70969816264632
  H   9.84654272322821      2.82030697565005     -1.72358986212802
  H   9.95498920565719      1.15481209209903     -1.09697143599947
  O   7.18375775390797      0.90068129211628     -1.00181383123347
  H   7.69010913459501      4.10652473863594     -0.45648198395965
  H   5.25130630578837      3.16155447731413      0.41458916233719
  C   5.00826325248315     -1.01750007164808     -0.14142733519992
  C   6.22788670450256     -1.72348637181516     -0.13003495288741
  C   6.30081294289348     -3.12103553701942     -0.00574668871653
  N   7.51108860742715     -3.79503949518406     -0.05524349277324
  C   7.72163126767481     -5.07727608541702      0.62161133081535
  H   8.34056078233972     -5.71527203548430     -0.03703815284279
  H   6.76792092916705     -5.59640695980315      0.76385154563607
  C   8.43510429301648     -4.88157662195474      1.97124162531379
  H   7.75968944101966     -4.33081998580530      2.65057615031671
  H   8.62486895177837     -5.86650416426452      2.43216644761510
  C   9.74895659523217     -4.10474367908696      1.79785800968758
  H   10.20294757618820     -3.89214104817583      2.77997948625210
  H   10.47260425044457     -4.73680805328019      1.24807874618185
  C   9.52474388664932     -2.80344011862365      1.01176613332040
  H   8.93184973470814     -2.09287409283106      1.61462133199134
  H   10.48837698623846     -2.31419292777926      0.78789561166697
  C   8.77676755847726     -3.10115717773292     -0.29654652019668
  H   9.39864034927256     -3.76857542364676     -0.92302420597361
  H   8.60002126750695     -2.19473276755749     -0.88745373315487
  C   5.07184052911250     -3.83157537724132      0.13330649179159
  C   3.87716993058400     -3.14843870659360      0.12556101999152
  C   3.76195945060377     -1.74093565751427     -0.00960064541263
  C   2.43781794384157     -1.12688032047078     -0.00956395694355
  N   2.37319155083494      0.24705875730632     -0.01323227555118
  C   1.21884027559884      0.88167473195541     -0.00651942562957
  N   -0.00134204731915      0.18168674326477      0.00825030361741
  C   -1.22034883118269      0.88366114032859      0.02530352802239
  N   -2.37576591640653      0.25097116147492      0.02979130991726
  C   -2.44280289228178     -1.12282535394154      0.02129598788711
  C   -1.25072205396871     -1.86226169282221      0.01535997067464
  C   -0.00255402642683     -1.22133567702084      0.00558259387494
  C   1.24453953554148     -1.86435302951893     -0.00674159378348
  H   1.23301279978612     -2.95027445130587     -0.02691385673371
  H   -1.24090188498255     -2.94827080820859      0.03078778968317
  C   -3.76799868185937     -1.73460272129342      0.01958756613980
  C   -3.88555135019516     -3.14177681254550     -0.11713073350867
  C   -5.08142578488303     -3.82274523565113     -0.12744614951565
  C   -6.30937609234364     -3.11016527800741      0.01023934567614
  N   -7.52094791024180     -3.78204119802152      0.05677177895041
  C   -7.73242066601587     -5.06332750854426     -0.62161130999913
  H   -8.35440442676209     -5.70044545786614      0.03499619812990
  H   -6.77947228076650     -5.58442547403570     -0.76173297944421
  C   -8.44204537947599     -4.86511415661426     -1.97289640635346
  H   -7.76380303314345     -4.31517167057204     -2.65006922224396
  H   -8.63261882245818     -5.84928009098984     -2.43511309139445
  C   -9.75477743772591     -4.08578817224969     -1.80218003445261
  H   -10.48108057798376     -4.71689318936967     -1.25480672992662
  H   -10.20584668852968     -3.87140187879522     -2.78525904496578
  C   -9.53000024362632     -2.78563059568478     -1.01434546012386
  H   -8.93421244620675     -2.07565911406946     -1.61504812649025
  H   -10.49324933482142     -2.29471912077276     -0.79246443677461
  C   -8.78590654043760     -3.08596252378266      0.29558440645930
  H   -9.41059505469532     -3.75275058139937      0.91991361430692
  H   -8.60893754251691     -2.18040153116248      0.88774449617848
  C   -6.23411050983596     -1.71293494159386      0.13651307642669
  C   -5.01323418139471     -1.00915722800235      0.15088188970736
  N   -4.99088166048474      0.36304117813588      0.27555459703393
  C   -6.01578715323473      1.27687926845377      0.40475875996846
  C   -6.03958952756005      2.61314571949171      0.09360209356745
  C   -7.31322575161530      3.10035836304703      0.54607941694698
  C   -7.98382647242958      2.04253628794627      1.08563606587739
  O   -7.18680247560117      0.91157448122765      1.01089288570821
  C   -9.33056286473040      1.86511161415701      1.68957117321475
  H   -9.95761336552457      1.16999595016399      1.10270397386020
  H   -9.84746576996197      2.83481194532789      1.73085085004004
  H   -9.26869624217347      1.46493171259349      2.71663373025077
  H   -7.68707163516090      4.11883659604780      0.46833121590863
  H   -5.24858390040617      3.17075293237423     -0.40030540202543
  H   -4.04315647826035      0.75932318285186      0.17368115493277
  H   -7.14105394219723     -1.12637473819350      0.21550483813694
  H   -5.06506151060378     -4.90815672085878     -0.20512263292635
  H   -2.97947470975593     -3.73689678604158     -0.22626280641296
  N   -1.19873642421402      2.23360842100453      0.03313153944890
  C   0.00086617560855      2.81525466473699      0.01269075040538
  N   1.19948516065352      2.23166165517905     -0.00980459265204
  C   0.00213882090933      4.30999994734566      0.01519535173258
  C   -1.19655220004594      5.02940253759587      0.06887205766692
  C   -1.13565523169298      6.43123611153165      0.06811720267787
  C   -2.36469479297211      7.19402628354869      0.12079667480891
  N   -3.37060068669923      7.77604844793571      0.16229744324332
  N   0.00459612676863      7.13713262111355      0.01986760789187
  C   1.14361959063646      6.42942306276830     -0.03071848606611
  C   2.37398658930901      7.19023433339257     -0.08095631472913
  N   3.38088915916781      7.77064742155616     -0.12080375818536
  C   1.20207463506865      5.02749725040663     -0.03610201825571
  H   2.15190639436461      4.49621372577008     -0.08020928988466
  H   -2.14731142022709      4.49963494586400      0.11121446446630
  H   2.97014633360962     -3.74190624057390      0.23595960492106
  H   5.05369173321624     -4.91702273698346      0.21011902035919
  H   7.13577721435272     -1.13845188571819     -0.20951972725279
