107
Coordinates from ORCA-job ./opt_b3lyp_cdz
  H   4.03302830638612      0.11617622205566      0.18720940012249
  N   4.98445913335285     -0.27503430653882      0.28724884818996
  C   5.99272745021087      0.65020944476355      0.44839588184795
  C   5.96422167542180      2.01028660032754      0.25908220572977
  C   7.25630786068630      2.48958341822765      0.66413263544537
  C   7.98696042675098      1.40848126578585      1.05982520663271
  C   9.37435162835717      1.21463749305031      1.55654206658740
  H   9.97198379179812      0.58201849078632      0.87571744679103
  H   9.87604915126631      2.18963220419047      1.64027844739060
  H   9.39068026198953      0.73449649154681      2.55081768763392
  O   7.21044078935259      0.26597036980533      0.93584949545480
  H   7.60131608894289      3.52111022071296      0.65347846800581
  H   5.12742327722698      2.58958639690429     -0.12127640051394
  C   5.01064804459297     -1.64633673584141      0.15469752025321
  C   6.23103196076853     -2.35219432133935      0.14213994161487
  C   6.30464453333657     -3.74876422879124      0.00731628950916
  N   7.51596886333375     -4.42244459928129      0.05661066806764
  C   8.77978732391917     -3.72845798563562      0.30626943515180
  H   9.40198609336437     -4.40007194038972      0.92799978450437
  H   8.60009759383792     -2.82750365600322      0.90461513622879
  C   9.52994638629439     -3.41752240864407     -0.99779591465842
  H   10.49236700526995     -2.92871942617294     -0.76756440755777
  H   8.93703803806854     -2.70249737670215     -1.59532813037757
  C   9.75793346704957     -4.71120550877228     -1.79531174709405
  H   10.48127608024460     -5.34720162798966     -1.24961342842747
  H   10.21391075556950     -4.48903705125044     -2.77442655644523
  C   8.44565074832225     -5.48840153206422     -1.97852453951467
  H   7.77061659612015     -4.93230019550184     -2.65387845746404
  H   8.63784168658822     -6.46862983962277     -2.44845987236032
  C   7.73016726623935     -5.69765158117068     -0.63199457541422
  H   6.77768011059537     -6.21727231826557     -0.78059540275375
  H   8.34919042507569     -6.34080248949385      0.02162875618373
  C   5.07744919730813     -4.45907553767326     -0.14261710086368
  C   3.88217327706536     -3.77634306391580     -0.13396461616401
  C   3.76532828976389     -2.37075072971987      0.01296088352278
  C   2.43940590389114     -1.75874646750987      0.01543301175647
  N   2.37379875246739     -0.38599760667604      0.02559837372192
  C   1.21809857012145      0.24866047801062      0.01868202683883
  N   -0.00044343224639     -0.45373217557251     -0.00098553825542
  C   -1.21888581923244      0.24880806149083     -0.01900105400097
  N   -2.37465945912001     -0.38572553309580     -0.02726837242669
  C   -2.44056363303094     -1.75847925530051     -0.01990386084727
  C   -1.24847794480617     -2.49826541770701     -0.01448953738415
  C   -0.00056836687441     -1.85663879764336     -0.00221491560063
  C   1.24731541574712     -2.49842017817285      0.00904417457981
  H   1.23737780481025     -3.58442327455604      0.02631415585555
  H   -1.23845872236662     -3.58423525355324     -0.03293830808646
  C   -3.76660856679980     -2.37018183991258     -0.01912639766415
  C   -3.88351348532130     -3.77657812767987      0.12004594441236
  C   -5.07884071541600     -4.45919074346299      0.12688680563201
  C   -6.30618794756445     -3.74785783763696     -0.01682450683727
  N   -7.51772119023954     -4.42116848112283     -0.06793314925677
  C   -7.73061224775167     -5.69984367577667      0.61473951077776
  H   -8.35388640004255     -6.33813054414142     -0.03955890852750
  H   -6.77834474395888     -6.22202253556086      0.75562795469937
  C   -8.43933969603688     -5.49690332789206      1.96579550189562
  H   -7.76034576464793     -4.94528675828166      2.64085528784502
  H   -8.63061844906705     -6.47934370291084      2.43145947775047
  C   -9.75147665158821     -4.71702976246161      1.79291499423172
  H   -10.20238519074961     -4.49925064073892      2.77536000247928
  H   -10.47831759499771     -5.34931444831148      1.24755146838009
  C   -9.52574843483078     -3.41956867312585      1.00087254358455
  H   -8.92923404010279     -2.70823398801505      1.59921631122347
  H   -10.48868606535000     -2.92852926964468      0.77765870622198
  C   -8.78202045868550     -3.72468485954171     -0.30824525349734
  H   -8.60424048757054     -2.82092431010672     -0.90293313402530
  H   -9.40765953474674     -4.39262498855330     -0.93042397406275
  C   -6.23262343616677     -2.35060388036088     -0.14409471122379
  C   -5.01212295314327     -1.64478773251262     -0.15507863392584
  N   -4.98565544442399     -0.27286454841962     -0.28020516026895
  C   -5.99253561533016      0.65461942866464     -0.43627579623380
  C   -5.95820145274545      2.01523159192374     -0.25113181361690
  C   -7.25289304398404      2.49703813176468     -0.64455042633399
  C   -7.99055558700517      1.41704558825763     -1.03008713216593
  O   -7.21601911397529      0.27257384943736     -0.91039171279708
  C   -9.38308332501460      1.22564394687162     -1.51311487856361
  H   -9.41015397222097      0.74373875059719     -2.50632229885361
  H   -9.97566243636868      0.59575033870351     -0.82538131306823
  H   -9.88320274006156      2.20170036976821     -1.59388111801257
  H   -7.59475774462054      3.52960665477373     -0.63341184559796
  H   -5.11607621510247      2.59334043343835      0.11914018378514
  H   -4.03333915523722      0.11696424334148     -0.18223739393881
  H   -7.14018840825417     -1.76587743131449     -0.22249518165955
  H   -5.06155844665430     -5.54440563072377      0.20729289516157
  H   -2.97706600573514     -4.37018179405838      0.23430504731516
  N   -1.19893779284689      1.59706447515625     -0.02373934440108
  C   -0.00031479420857      2.18309151839047      0.00196133763415
  N   1.19824540756280      1.59692653671891      0.02637196872623
  C   -0.00028719226552      3.67639891845792      0.00354488549668
  C   1.20124441495238      4.39400692444628      0.04579120948300
  C   1.13756193880607      5.78805019325001      0.04389823714228
  N   -0.00039210245821      6.48620315827037      0.00644949865965
  C   -1.13829585545508      5.78805374332059     -0.03243884044138
  C   -1.20185370933384      4.39402448471221     -0.03721176151596
  H   -2.14914265954796      3.86071219281264     -0.07268636148383
  C   -2.40265462374534      6.62828975282485     -0.07382093267349
  F   -3.51141389859705      5.85114825177067     -0.09036863501264
  F   -2.49288752496370      7.43640293417325      0.99960045189282
  F   -2.44087749883742      7.40788434270278     -1.17153461460004
  C   2.40183171772505      6.62833633854007      0.08701654208297
  F   3.51067419641439      5.85131080005368      0.10176399083554
  F   2.44004204203479      7.40553058893884      1.18643827543205
  F   2.49186151634653      7.43882703696924     -0.98463381386073
  H   2.14859685125913      3.86070938869948      0.08015642820832
  H   2.97578581150028     -4.36899406036341     -0.25366267926447
  H   5.06018861632450     -5.54381504719781     -0.22928310596036
  H   7.13855545949140     -1.76800847220085      0.22558368017223
