101
Coordinates from ORCA-job ./opt_b3lyp_cdz
  H   4.03058947242545      1.13801120487762     -0.18517898438230
  N   5.00882333380199      0.79402826374946     -0.23711575106337
  C   5.96118846428143      1.78297962649632     -0.30658708625615
  C   5.78052119660333      3.14612252001838     -0.30072319053257
  C   7.09697562225666      3.71064073953516     -0.39673347646596
  C   7.98583223632320      2.67758951758812     -0.45380848833141
  C   9.46486167503242      2.57779685720186     -0.55793540569110
  H   9.77914739910965      2.03933909910341     -1.47017827161643
  H   9.90480878639566      2.04632258950929      0.30505624724591
  H   9.90086539113189      3.58690939193012     -0.59295753166056
  O   7.28851254465001      1.47770475509266     -0.39831047403088
  H   7.35213328720411      4.76795028802138     -0.42101775927713
  H   4.82598164816140      3.66336910491558     -0.23780062697139
  C   5.07377714260034     -0.57951979285081     -0.24266134541856
  C   6.31122655899964     -1.25749802853534     -0.28911454121978
  C   6.41179434109080     -2.65819967730758     -0.29936258515424
  N   7.63889104710972     -3.30141556258097     -0.40806841089865
  C   7.87002604248051     -4.63003552005825      0.16413878088657
  H   8.53198764193901     -5.18827348035057     -0.52448002054434
  H   6.93042425864649     -5.18945187504909      0.22549947424625
  C   8.53120931115933     -4.53284456933625      1.55068001583011
  H   8.73697863903256     -5.54800156252289      1.93281601742426
  H   7.81618111946440     -4.06255611243242      2.24967682939666
  C   9.82479285265817     -3.70614282837195      1.49140352245200
  H   10.23880397162252     -3.56521902031748      2.50381521899333
  H   10.58641797290696     -4.26808805749605      0.91698489998548
  C   9.58587323334132     -2.34936990863363      0.81013165049867
  H   10.54065567972987     -1.81543602250303      0.66280239325020
  H   8.95132288907353     -1.71018699483310      1.44920064069863
  C   8.88973780361742     -2.55506517622915     -0.54403700835906
  H   8.70453807213485     -1.60584900459007     -1.06077057089811
  H   9.55189325426510     -3.14826443754406     -1.20308396814988
  C   5.19959262176425     -3.40597833722446     -0.24251102782961
  C   3.98886251951906     -2.75159446499918     -0.18716559763778
  C   3.84287518506528     -1.34242232397235     -0.18010910471456
  C   2.50483554596473     -0.75648438983743     -0.11515836312181
  N   2.41993728112723      0.61068764481721     -0.11098768112651
  C   1.25792643578392      1.23796088744418     -0.05448863135369
  N   1.23071841416108      2.58037403770978     -0.05241289237262
  C   0.02359791940318      3.15026044159566      0.00525472945244
  N   -1.17204429169742      2.55216172850450      0.06205202099415
  C   -1.16997768183979      1.20780754776219      0.06253553276811
  N   -2.31740711910671      0.55424523539534      0.11792931158610
  C   -2.36766432875306     -0.81615809724244      0.12041296273449
  C   -1.17037735288901     -1.54454696792289      0.06172528452334
  C   0.06999152023628     -0.88753404588307      0.00296688420836
  C   1.32385911585842     -1.51466651057897     -0.05655900844371
  H   1.32783940434886     -2.60088857572700     -0.05446347387168
  N   0.05203976495022      0.51537130076842      0.00376141459988
  H   -1.14812659037950     -2.63049731742895      0.05826463141257
  C   -3.69151949139396     -1.43763997313140      0.18373475703725
  C   -3.79997205158918     -2.84981214263405      0.18992486567593
  C   -4.99304687011092     -3.53680522771544      0.24360449041619
  C   -6.22452476125027     -2.82247727419561      0.29933406949082
  N   -7.43456025190688     -3.49747394132427      0.40654757398571
  C   -8.70499361855470     -2.78449401122026      0.53918018081033
  H   -8.54609817813803     -1.82974568429613      1.05449301009377
  H   -9.35213623868735     -3.39381581611977      1.19842499069043
  C   -9.40436630476042     -2.59996549034277     -0.81644075112313
  H   -8.78658349602317     -1.94458105180199     -1.45558081395216
  H   -10.37364714811045     -2.09213709161163     -0.67132702036529
  C   -9.60521701661824     -3.96371915191568     -1.49616888781911
  H   -10.02087284390025     -3.83538664748846     -2.50957350322021
  H   -10.35262519403338     -4.54507760256243     -0.92242250607412
  C   -8.28984814857172     -4.75555419819522     -1.55159521221038
  H   -7.58610190162313     -4.26741645518347     -2.24979336084197
  H   -8.46767911135269     -5.77637772576421     -1.93259605287624
  C   -7.62948907065211     -4.83283739457577     -0.16348220723953
  H   -8.27833276123026     -5.40668349660412      0.52476241500774
  H   -6.67558903148478     -5.36790739694733     -0.22143775681894
  C   -6.16069444272447     -1.41913472411271      0.28947667006272
  C   -4.94186162753909     -0.70922959117087      0.24482895900203
  N   -4.91316401426731      0.66706849621876      0.23989306126737
  C   -5.89190206586879      1.62875516544546      0.30833572109983
  C   -5.75015563007643      2.99682285113455      0.30140329782429
  C   -7.08181616516645      3.52507643248221      0.39735985390666
  C   -7.94126738039755      2.46767336666993      0.45543917780883
  C   -9.41684597599607      2.32623624017704      0.55983588603175
  H   -9.88133667861268      3.32258461746842      0.59423975162497
  H   -9.84157123958361      1.78194695472665     -0.30273626199368
  H   -9.71556464842848      1.77969809562795      1.47244307793874
  O   -7.21018060915359      1.28786397084142      0.40065468770733
  H   -7.36770709286951      4.57456377920919      0.42095179983901
  H   -4.80953183008074      3.53821441164162      0.23777755125238
  H   -3.94388913304411      1.03608429711024      0.18968581283397
  H   -7.07099481392386     -0.83373053570031      0.29478718174372
  H   -4.96963912970251     -4.62428595348432      0.28252849630395
  H   -2.88894943936114     -3.44687613880814      0.16240014206580
  C   0.01328469817640      4.62107508328567      0.00621926993554
  N   1.03058498107031      5.43882365373633     -0.04033466412053
  C   0.46256428341059      6.69587871407893     -0.01356029040787
  C   -0.90147515178750      6.58639765606858      0.04923942286331
  C   -2.02842184624642      7.55240179991869      0.10129225890412
  H   -1.64121130262441      8.58108265566245      0.08436682298325
  H   -2.62651777246170      7.41932362851571      1.01840095732247
  H   -2.70739925863639      7.42059998118984     -0.75785095468574
  O   -1.19672046296621      5.25446990540147      0.06230477610159
  H   1.06609032972236      7.60055603694194     -0.04089936107296
  H   3.09388690457099     -3.37254737152109     -0.15894367276828
  H   5.20587410394124     -4.49365339253558     -0.28252266354632
  H   7.20554451430548     -0.64784093523537     -0.29530418175318
