98
Coordinates from ORCA-job ./opt_b3lyp_cdz
  H   3.95850432711985     -1.08249069080758      0.18916570552731
  N   4.92694960914859     -0.71394061075631      0.24007019431834
  C   5.90482133453463     -1.67743173292485      0.30999578041785
  C   5.76141613461368     -3.04505673351699      0.30414695705038
  C   7.09222623424836     -3.57495244153581      0.40085061125748
  C   7.95285371580726     -2.51852972709092      0.45825293747886
  C   9.42855337276777     -2.37892505577588      0.56318454715826
  H   9.89159327911831     -3.37589844090665      0.59791586637965
  H   9.72756741124736     -1.83271067275012      1.47587152552286
  H   9.85419958621436     -1.83540876961094     -0.29938833320307
  O   7.22332671142982     -1.33771991370444      0.40229179527117
  H   7.37566562612962     -4.62500322134117      0.42533426646624
  H   4.82119442406633     -3.58709584176762      0.24070724312900
  C   4.95776571569347      0.66182748135512      0.24660545169773
  C   6.17807150789113      1.36913524975590      0.29275481361794
  C   6.24534333416246      2.77224296371236      0.30413644458166
  N   7.45635471826203      3.44380073016387      0.41254323903279
  C   7.65479166721359      4.78201696477098     -0.14961737275679
  H   8.30202537135130      5.35136485242173      0.54382289252874
  H   6.70184699242126      5.31865685810283     -0.20812248265439
  C   8.31974856391995      4.71076664365258     -1.53583022219615
  H   8.50008800445647      5.73328044905365     -1.91100851680080
  H   7.61768063714589      4.22713536607160     -2.23884070896005
  C   9.63385325773138      3.91692156557744     -1.48000775838085
  H   10.05278946237329      3.79324085718929     -2.49260163850725
  H   10.38006708191543      4.49436902754861     -0.90081110467130
  C   9.42891416111762      2.55004689533115     -0.80790656995022
  H   8.81216689942847      1.89875549844717     -1.45221513854505
  H   10.39690779173504      2.04000393956861     -0.66228456983367
  C   8.72557281670779      2.72864259880235      0.54638129161489
  H   8.56396769384284      1.77165228702643      1.05655198060612
  H   9.37103898554209      3.33414788867116      1.21072407906498
  C   5.01519117543337      3.48986637462844      0.24808995732536
  C   3.82091548452736      2.80602709720925      0.19302390985342
  C   3.70874569212592      1.39362115107628      0.18538442993751
  C   2.38411323818516      0.77708284574306      0.12099331505338
  N   2.32837645605090     -0.59416862741844      0.11764061925523
  C   1.17968515663075     -1.24235015713577      0.06156365079211
  N   1.17655987095713     -2.58823437034281      0.06033452676154
  C   -0.02139840181940     -3.17789819325489      0.00289232682288
  N   -1.22724588262981     -2.60843652259045     -0.05474096412045
  C   -1.25044274782627     -1.26446257467258     -0.05619539237861
  N   -2.40936385337499     -0.63409952881920     -0.11260897190694
  C   -2.48952511082748      0.73457303023095     -0.11630869684660
  C   -1.30558340311653      1.48735980957210     -0.05710597073843
  C   -0.05380542444273      0.85572674009329      0.00256019745596
  C   1.18836827877816      1.50846329900020      0.06206205544459
  H   1.16919313689343      2.59446820410001      0.05906836302200
  N   -0.04105140545829     -0.54752239198657      0.00271636729042
  H   -1.30514348068071      2.57356792896835     -0.05448745585949
  C   -3.82458313166072      1.32580294569352     -0.18141504889857
  C   -3.96394900514353      2.73593349508986     -0.18888818842398
  C   -5.17117960451721      3.39616226532231     -0.24484591899522
  C   -6.38727591577955      2.65434878382728     -0.30211915349806
  N   -7.61075821661644      3.30289689281425     -0.41146340170775
  C   -8.86580092680004      2.56349937145876     -0.54746708474514
  H   -9.52246911155916      3.15765103268482     -1.21108249240777
  H   -8.68526642963976      1.61074098147108     -1.05922124727949
  C   -9.56633525505394      2.36884189176898      0.80603471496446
  H   -10.52388288883074      1.83982286299383      0.65911245060766
  H   -8.93705322270299      1.72905639118105      1.44971268139080
  C   -9.79878752552141      3.73040626067713      1.47988667263359
  H   -10.21611540829213      3.59710340102664      2.49193947755201
  H   -10.55567932241899      4.29390239225280      0.90078736856614
  C   -8.50054201634411      4.54979179833275      1.53813960042788
  H   -7.78992903977321      4.07899711403199      2.24128450416630
  H   -8.70124785706779      5.56806816987437      1.91453571535114
  C   -7.83546483700795      4.63606088087254      0.15278709414556
  H   -8.49255033290636      5.19424249950502     -0.54048132089030
  H   -6.89293013866282      5.19053642359771      0.21343700494424
  C   -6.29328441536027      1.25302671196088     -0.29112907560033
  C   -5.05941014284565      0.56907545654574     -0.24393940864232
  N   -5.00173664375193     -0.80492660218888     -0.23766627068950
  C   -5.95975051771647     -1.78856312077136     -0.30790400660460
  C   -5.78703184821307     -3.15268943907023     -0.30373374987988
  C   -7.10672415989520     -3.70971590867990     -0.39912916195178
  C   -7.98959684508642     -2.67151110212658     -0.45441569633199
  C   -9.46807338443429     -2.56312488949304     -0.55745926297320
  H   -9.90418251472929     -2.02951691678248      0.30610967523359
  H   -9.90992610923876     -3.56966360117738     -0.59258286511472
  H   -9.77980905635864     -2.02252249677952     -1.46927100956648
  O   -7.28527257706368     -1.47572482551134     -0.39814095616690
  H   -7.36794632122454     -4.76550194243732     -0.42431580494982
  H   -4.83553580173224     -3.67551395004665     -0.24214530219743
  H   -4.02611874980006     -1.15463990378157     -0.18613632002585
  H   -7.19059302663499      0.64785469638898     -0.29716469262744
  H   -5.17183877371915      4.48381442204811     -0.28469159010328
  H   -3.06611885436537      3.35268727499682     -0.16053910424504
  C   -0.01653023026153     -4.64864472177549      0.00288279451254
  N   -1.02759360755399     -5.47117495990238     -0.04412176316289
  C   -0.47277356035153     -6.73754688024674     -0.01846031506207
  C   0.87986262451646     -6.58647087783892      0.04427031625171
  F   1.88455913408161     -7.43375047277628      0.09056775815447
  O   1.20530673423174     -5.28574408802126      0.05953241619943
  H   -1.06272342927720     -7.64855260893199     -0.04591047812046
  H   2.91146599902477      3.40545752778625      0.16560198318248
  H   4.99432438457198      4.57731947617426      0.28788295417999
  H   7.08694788920988      0.78160188361917      0.29775785680481
