98
Coordinates from ORCA-job ./opt_b3lyp_cdz
  H   4.00841551140486     -0.99997920282920     -0.17671517999694
  N   4.97582982495429     -0.62997607066113     -0.23067693278027
  C   5.00596169260049      0.74438517831701     -0.23979178404578
  C   6.22612413750432      1.45241907063268     -0.28969683423939
  C   6.29288691849470      2.85518475140309     -0.30351717873022
  N   7.50305963608092      3.52683027837656     -0.41537669462988
  C   7.70297446068167      4.86638178795922      0.14303829088855
  H   6.74977819485653      5.40211962616100      0.20554335644044
  H   8.34612716133136      5.43508171521401     -0.55472107083296
  C   8.37492836610569      4.79831067415076      1.52605263855044
  H   7.67670856463223      4.31561931881140      2.23352775901398
  H   8.55623179865154      5.82177036382977      1.89819070737986
  C   9.68935585880890      4.00538211045087      1.46540070061929
  H   10.11334733152415      3.88410955336524      2.47618038922719
  H   10.43228918414334      4.58225463555403      0.88142759839075
  C   9.48216119393704      2.63700758068767      0.79710660681761
  H   10.44976821491950      2.12737985681926      0.64770773417377
  H   8.86915408283421      1.98644618341781      1.44568326784947
  C   8.77220194075239      2.81227704841830     -0.55410112487743
  H   9.41387397864458      3.41696135678634     -1.22285218422896
  H   8.60870426423475      1.85414950606200     -1.06145731339350
  C   5.06239023885172      3.57368895099919     -0.24607696316516
  C   3.86852326191765      2.89045044250838     -0.18765115137604
  C   3.75644859035231      1.47751261295558     -0.17751829281688
  C   2.43388162969917      0.86174669385307     -0.11005714790846
  N   2.37914719786076     -0.50897079567342     -0.10205802438754
  C   1.23409778240109     -1.16108491224149     -0.04280773635811
  N   1.24074612260763     -2.50753367757656     -0.03819275859456
  C   0.05043809230702     -3.10151503244782      0.02201412366255
  N   -1.16045213151968     -2.53102358635511      0.07976661530622
  C   -1.19868469931600     -1.18677585534180      0.07812654614931
  N   -2.36097715040575     -0.56142155487260      0.13411051080401
  C   -2.43967105584818      0.80947969021429      0.13315320544003
  C   -1.25777836065383      1.56202169942040      0.06910138400082
  C   -0.00372332252866      0.93339286392339      0.01070396529526
  C   1.23475956238321      1.59004243596465     -0.05265516470444
  H   1.21180071075677      2.67604718553012     -0.05403546320960
  N   0.01006828899540     -0.46956985803698      0.01584403205310
  H   -1.25841192958495      2.64794628339045      0.05990438585278
  C   -3.77254837860457      1.40935006250787      0.19762089527242
  C   -3.90013322860849      2.82065749783600      0.21067744252579
  C   -5.10136207137734      3.49225517294588      0.26279639512488
  C   -6.32398316307575      2.76201568903809      0.30927070080061
  N   -7.54260012213171      3.41981250862054      0.41286908253862
  C   -7.75183713554568      4.75885928682120     -0.14351466004131
  H   -8.40779197555675      5.31829341664860      0.54977274638194
  H   -6.80400514335271      5.30517374109673     -0.19498021437699
  C   -8.40961867089084      4.68775348453330     -1.53314769009629
  H   -8.59871298233131      5.71027048657117     -1.90393336323264
  H   -7.69932981676755      4.21511080094599     -2.23538194183109
  C   -9.71570712762248      3.88015082634103     -1.48761758440457
  H   -10.47059747019876      4.44690571538618     -0.90913011196215
  H   -10.12857187781557      3.75732492631344     -2.50279906368701
  C   -9.49988368993498      2.51209017940929     -0.82138219157431
  H   -10.46323429250669      1.99132200852184     -0.68310652015856
  H   -8.87320150774148      1.87045622502895     -1.46581906995349
  C   -8.80512401327579      2.69116833420427      0.53723401638540
  H   -8.63641488684718      1.73342062985810      1.04366344095682
  H   -9.45988718084174      3.28687316082990      1.20130542339559
  C   -6.24120626389768      1.35961028033702      0.29384650914796
  C   -5.01361335026939      0.66517081132963      0.25217013454820
  N   -4.96955212806135     -0.71140752868371      0.24343238409181
  C   -5.94344476286261     -1.68010188389258      0.30496013653394
  C   -5.79834248484773     -3.04743586328442      0.28808500942546
  C   -7.12769020450366     -3.58153763308612      0.38266370909733
  C   -7.99023223902258     -2.52755188823600      0.44951257818165
  C   -9.46604077890496     -2.39136582916815      0.55703962093907
  H   -9.89343690389163     -1.84217083570458     -0.30102198214757
  H   -9.92736181697684     -3.38934513447187      0.58471032820469
  H   -9.76489968334305     -1.85263279371694      1.47415658080091
  O   -7.26287135489582     -1.34518724927248      0.40195914916303
  H   -7.40878413241537     -4.63236579252892      0.39912785453726
  H   -4.85873492164884     -3.58878785539396      0.21852146250639
  H   -3.99884101167466     -1.07208054558924      0.19784997826199
  H   -7.14416133821553      0.76351769181803      0.29271399509820
  H   -5.09147924110690      4.57965953296372      0.30772486974459
  H   -2.99757492422346      3.43035444058603      0.19163904515567
  C   0.03770320458381     -4.57724813772107      0.02703596930254
  N   1.09400799054155     -5.35300209670076     -0.02625018530624
  C   0.70874294076350     -6.64615908148672     -0.00256007814342
  F   1.65524696271160     -7.58759581942620     -0.05044805950811
  C   -0.63431879362194     -6.92040843399696      0.06894878404280
  S   -1.50195626289587     -5.42332741795238      0.11023514391289
  H   -1.12158568537102     -7.89146447153881      0.09729742472558
  H   2.95884872834310      3.48962054185184     -0.15921854177973
  H   5.04202579249584      4.66106862180286     -0.28778328706891
  H   7.13499790967885      0.86479861196204     -0.29526043855431
  C   5.95361219948706     -1.59470080961544     -0.30033872002754
  C   5.80805886615555     -2.96179460535525     -0.29260663426876
  C   7.13828376623859     -3.49263460223363     -0.38944677472740
  C   8.00014219119335     -2.43713436031922     -0.44886243667670
  C   9.47595384865673     -2.29964987840671     -0.55504089525340
  H   9.90303879980060     -1.75568130537099      0.30656962416153
  H   9.93753495698155     -3.29732046548462     -0.58882377386994
  H   9.77511075997071     -1.75507282842560     -1.46869150930383
  O   7.27230636794261     -1.25536604306039     -0.39397602426705
  H   7.41979102459295     -4.54319856941414     -0.41268287839825
  H   4.86772752507466     -3.50411070386111     -0.22792590226766
