99
Coordinates from ORCA-job ./opt_b3lyp_cdz
  H   4.01658132253231     -1.09616831557182      0.18739778009207
  N   4.99276711143093     -0.75034582074508      0.23434669883798
  C   5.94770474174815     -1.73700326790680      0.29894395585365
  C   5.77157893712043     -3.10082719183441      0.29393984044220
  C   7.08994104275789     -3.66266101034029      0.38203408325609
  C   7.97587738868172     -2.62712227479168      0.43404352185573
  C   9.45506965026130     -2.52275038884270      0.52976672108061
  H   9.88786351737124     -1.98922726886377     -0.33539487349117
  H   9.89460210777659     -3.53037672688467      0.56145810509855
  H   9.77240719388554     -1.98409933599055      1.44068340332364
  O   7.27427120707116     -1.42929029816011      0.38278244884686
  H   7.34906349959618     -4.71902111407057      0.40465315105545
  H   4.81783575346636     -3.61926973928857      0.23633640532319
  C   5.05654218782695      0.62454921206200      0.24440844623437
  C   6.29352061308320      1.30161223953117      0.28953572332788
  C   6.39515175869378      2.70290988021825      0.30527032348995
  N   7.62151729080226      3.34401100317897      0.41189949446106
  C   7.85016870841573      4.68319228283552     -0.13669054875448
  H   8.50886733187828      5.23118854227324      0.56304352849903
  H   6.90947164449381      5.24130268062446     -0.19106484405300
  C   8.51496364289041      4.61021306895461     -1.52288110915789
  H   8.71900610516217      5.63205637456360     -1.88744768734496
  H   7.80270121510403      4.15011657965829     -2.23142471727386
  C   9.81047722140668      3.78594431842670     -1.47415870519688
  H   10.22694807408202      3.66244590322533     -2.48775374476270
  H   10.56946991280346      4.34045183860647     -0.88926921917688
  C   9.57393174037250      2.41776132620202     -0.81531468792847
  H   10.52984707279683      1.88425085061076     -0.67436222041806
  H   8.94247510417555      1.78695376752058     -1.46575814056779
  C   8.87452716321505      2.59958506396058      0.54046001331120
  H   8.69169773275643      1.64200845298515      1.04216403174678
  H   9.53274076689816      3.18487349715367      1.21028916894263
  C   5.18211573599505      3.45026046717168      0.25495688839774
  C   3.97182261954447      2.79606948563289      0.20041161744243
  C   3.82512310142777      1.38638534026298      0.18790561499708
  C   2.48620875737066      0.80405752748821      0.12325239527992
  N   2.39468610731981     -0.56716113317850      0.12211742168369
  C   1.23106834506344     -1.18383823525392      0.06668672190572
  N   1.19241453611450     -2.53197420708109      0.06710867318669
  C   -0.02054949296148     -3.08494587980022      0.01042197913302
  N   -1.21100318678059     -2.49071423479275     -0.04774549424367
  C   -1.20098325939550     -1.14325996406429     -0.05112491163750
  N   -2.34202076355105     -0.48637431355598     -0.10818655670310
  C   -2.38887858556189      0.88579564629866     -0.11444211465456
  C   -1.18454531004216      1.60664719300422     -0.05752589212597
  C   0.05025465358003      0.94362595621191      0.00357030670076
  C   1.30927257170494      1.56421793093396      0.06168707368093
  H   1.31753683135750      2.65033774765027      0.05507929756644
  N   0.02746803523309     -0.46001677161705      0.00676740979415
  H   -1.15558749244688      2.69249146352625     -0.05786658285722
  C   -3.70653645633648      1.50936882911179     -0.17949393787293
  C   -3.80939245296875      2.92362381565751     -0.18534050845485
  C   -4.99820391934554      3.61484379032065     -0.24147622182445
  C   -6.23409768486144      2.90478122279261     -0.30128798817229
  N   -7.43899702324456      3.58442702624761     -0.41082216514442
  C   -8.71366972950488      2.88006831834063     -0.55264729189506
  H   -8.55668928397765      1.91985729787408     -1.05798364606121
  H   -9.34810232874231      3.48908802716256     -1.22429918879988
  C   -9.42873307943150      2.71311475832091      0.79685512896218
  H   -8.82300405067734      2.05848509084209      1.44818901022259
  H   -10.40005495038982      2.21130003150257      0.64545005953764
  C   -9.62653488554694      4.08427981013658      1.46225585031744
  H   -10.05399122211987      3.96809372693416      2.47213734710188
  H   -10.36332382756936      4.66608833476448      0.87546899136322
  C   -8.30598712652987      4.86677129511627      1.52506140582290
  H   -7.61357602749411      4.37999228596008      2.23543490599452
  H   -8.48013067676729      5.89238798598807      1.89456940803645
  C   -7.62959338196373      4.92694779472420      0.14387484734462
  H   -8.26625444462490      5.49910783970524     -0.55694142237877
  H   -6.67243198551641      5.45529501667702      0.20805747478716
  C   -6.17670469383529      1.50153330870512     -0.29150555467504
  C   -4.96162977418937      0.78493449170850     -0.24356547390822
  N   -4.94180530713530     -0.58932971548148     -0.23830821884649
  C   -5.92730677917794     -1.54668032706386     -0.31024541291039
  C   -5.79247331674490     -2.91471923373046     -0.30216026990225
  C   -7.12632583523837     -3.43538396935934     -0.40352798411418
  C   -7.97960318980267     -2.37312002529129     -0.46553501523991
  C   -9.45394726988804     -2.22418531537007     -0.57618336516363
  H   -9.74583394722084     -1.67672352533075     -1.49040579785446
  H   -9.92295567979333     -3.21826273243675     -0.61211574711768
  H   -9.87933430385686     -1.67762960308929      0.28458132737208
  O   -7.24273608302563     -1.19695724042746     -0.40818784941870
  H   -7.41552234391552     -4.48378915327511     -0.42779207462485
  H   -4.85712135651738     -3.46508764790645     -0.23450836944719
  H   -3.97837563274576     -0.96748203475734     -0.18428637505039
  H   -7.08951627579090      0.92013880261440     -0.29868198107493
  H   -4.97032351471552      4.70214811015649     -0.27938145992339
  H   -2.89587711637965      3.51675442724224     -0.15492878566094
  C   -0.05231501885165     -4.56279352629346      0.01232051942076
  N   -1.08993681505622     -5.34857492448635     -0.03426243491859
  C   -0.55175632529892     -6.62680829227141     -0.00601592715467
  C   -1.34465559122033     -7.81337018880232     -0.04013410705564
  N   -1.96793018175738     -8.79559414681126     -0.06641736263151
  C   0.81577635928617     -6.53802946795208      0.05761924304699
  O   1.14319886595728     -5.22878362129955      0.06977815606961
  H   1.62372911415086     -7.26125122821700      0.09709241656736
  H   3.07735094444972      3.41778024991242      0.17845633626126
  H   5.18751366914055      4.53768189465087      0.29879343977595
  H   7.18788461432089      0.69227923311293      0.29013678961905
