99
Coordinates from ORCA-job ./opt_b3lyp_cdz
  H   -3.94294276328497      0.96196775415729     -0.18417633313318
  N   -4.90450130358048      0.57935103623195     -0.23676419253579
  C   -5.89543730620320      1.53084839865735     -0.30569843819873
  C   -5.76941357602157      2.89983449401622     -0.29479725862925
  C   -7.10633441201282      3.41327634436773     -0.39396902668062
  C   -7.95304636254728      2.34601928236767     -0.45760300653263
  C   -9.42650082684762      2.18809394231363     -0.56741057993807
  H   -9.84766737305270      1.63695968625666      0.29248010255442
  H   -9.71560107348643      1.64086460609299     -1.48262810549484
  H   -9.90177208271203      3.17927851424804     -0.60072756655937
  O   -7.20875374096488      1.17415721760000     -0.40334990443142
  H   -7.40192588353430      4.45995586733766     -0.41570869260713
  H   -4.83728281259838      3.45502114587352     -0.22659813667305
  C   -4.91732807363284     -0.79582281505482     -0.24447649895123
  C   -6.12879473781027     -1.51802487204737     -0.29153949873301
  C   -6.17941616692717     -2.92175829998768     -0.30394859414888
  N   -7.38123726964486     -3.60699453119119     -0.41260230826110
  C   -7.56393998906731     -4.95189376269626      0.13904099410815
  H   -6.60400475878972     -5.47557685821001      0.19993012890748
  H   -8.19913139377152     -5.52547460169401     -0.56193919892126
  C   -8.23782065995990     -4.89862918790471      1.52172559828360
  H   -7.54643650565265     -4.41018639123640      2.23195794531141
  H   -8.40607377301126     -5.92603462122709      1.88896181350112
  C   -9.56244817089074     -4.12271590748583      1.46352758750507
  H   -10.29747163553398     -4.70682143691831      0.87682423892834
  H   -9.98840397956734     -4.01116914095972      2.47456418620402
  C   -9.37308943164085     -2.74888951423609      0.80112062837157
  H   -8.76962632811937     -2.09266730805573      1.45297673273753
  H   -10.34735387347716     -2.25187873611807      0.65274704037331
  C   -8.65969567247711     -2.90871608349040     -0.55015352314603
  H   -9.29233975385636     -3.51913781319171     -1.22221847720272
  H   -8.50857312215340     -1.94641698181146     -1.05331359810819
  C   -4.94000236366476     -3.62517218176920     -0.24778149745033
  C   -3.75454268110549     -2.92774123969846     -0.19228045970863
  C   -3.65875532538180     -1.51319032205248     -0.18386391313293
  C   -2.34300338289220     -0.88328215577221     -0.11950270801719
  N   -2.30151918070500      0.49021430331242     -0.11283474833627
  C   -1.16190212537090      1.14920846385772     -0.05632365024427
  N   -1.17341812010841      2.49789919703771     -0.05219931491792
  C   0.01757666361267      3.09537776913489      0.00560151655966
  N   1.23020656823734      2.54619878735894      0.06134957859034
  C   1.27023096201791      1.19907609575787      0.05997284495673
  N   2.43500656917029      0.58492436947406      0.11423525654239
  C   2.53228968189485     -0.78490132749023      0.11467002414870
  C   1.35666793890328     -1.54962641950031      0.05383283324206
  C   0.09683350946807     -0.93286376674987     -0.00331500019107
  C   -1.13728073804441     -1.59954111873164     -0.06366964818768
  H   -1.10488472663763     -2.68525549227551     -0.06393188621010
  N   0.06818659332320      0.47072141944518      0.00020689555260
  H   1.36843396379012     -2.63577314919962      0.04786748043555
  C   3.87316003981030     -1.35959255503281      0.17767018812424
  C   4.02826790222929     -2.76872866103934      0.18299483691021
  C   5.24226778454240     -3.41552012015510      0.23601704044537
  C   6.45090267685005     -2.66051344404508      0.29245752614625
  N   7.68066693162393     -3.29530616924399      0.39803099400345
  C   8.92881500515933     -2.54408431089553      0.53459814627464
  H   9.58914534624589     -3.13006718072712      1.20174352008586
  H   8.73881227980892     -1.59120319512501      1.04253474663020
  C   9.63007295188050     -2.34835672215661     -0.81826206094752
  H   10.58230106229515     -1.80989509593583     -0.67138684572911
  H   8.99615955771998     -1.71694091143645     -1.46568470642547
  C   9.87663650154810     -3.71039146119147     -1.48609271127321
  H   10.63771863603531     -4.26429952263800     -0.90333419941232
  H   10.29459484596380     -3.57721902702347     -2.49785740541366
  C   8.58633190437341     -4.54225039381596     -1.54366094662315
  H   8.79749579211284     -5.56026842760113     -1.91486230136896
  H   7.87296065180259     -4.08152579840369     -2.25067888038480
  C   7.91860180262947     -4.62908871256434     -0.15962968253570
  H   6.98128883843384     -5.19220914577932     -0.22048179665111
  H   8.57880508609473     -5.17831067311039      0.53773842133799
  C   6.34136730572666     -1.26013183033255      0.28379721897058
  C   5.10031339655422     -0.58958366528600      0.23978886807882
  N   5.02876905425028      0.78374707561935      0.23633756004673
  C   5.97729338587056      1.77701189584488      0.30723756488383
  C   5.79086177836734      3.13926099645367      0.30657495582625
  C   7.10503193614431      3.70940007366732      0.40103368928442
  C   7.99827436868686      2.67991653387228      0.45225882292692
  C   9.47789404360370      2.58592106052714      0.55247895677528
  H   9.91752298367853      2.05883202115061     -0.31323617005056
  H   9.90988762300277      3.59663204239068      0.58935725869491
  H   9.79627921297527      2.04619877212521      1.46244685646946
  O   7.30572555261978      1.47729685457969      0.39438170876582
  H   7.35578185431263      4.76764338955149      0.42829708391785
  H   4.83424519810586      3.65288923083066      0.24784729662510
  H   4.05103279290341      1.12480426238343      0.18757654342734
  H   7.23201946420152     -0.64529329170616      0.28913088675683
  H   5.25468061344940     -4.50310449006698      0.27419300282021
  H   3.13737848820249     -3.39546029313045      0.15558612087146
  C   -0.00574896906360      4.57368143868197      0.00833705969045
  N   1.01032941793442      5.39909838454483      0.05694887069137
  C   0.44604687490691      6.64936680592144      0.03403765738866
  C   -0.92076690212942      6.52365841873947     -0.02900958686824
  C   -1.97791167559093      7.46475149509344     -0.07547048156104
  N   -2.82037999723571      8.26860954094786     -0.11430514589712
  O   -1.21618992872861      5.18879738428846     -0.04574062696313
  H   1.03819848916716      7.56083320421599      0.06336760061271
  H   -2.83816951839112     -3.51650875786655     -0.16490687688255
  H   -4.90626551538792     -4.71223872207985     -0.28785161418172
  H   -7.04456726067555     -0.94135707913232     -0.29602615954295
