99
Coordinates from ORCA-job ./opt_b3lyp_cdz
  H   -3.99614628644218      0.86820907590738      0.17592686941116
  N   -4.95653035133941      0.48279385258032      0.23150628495019
  C   -4.96615542233921     -0.89127958228634      0.24046137773531
  C   -6.17592664497208     -1.61674531471257      0.29078073705094
  C   -6.22296193115079     -3.02027036170736      0.30415426983620
  N   -7.42270062914949     -3.70844833273737      0.41582229158654
  C   -8.70234991318811     -3.01327513783125      0.55827299446195
  H   -8.55154685541126     -2.05073715484721      1.06103889250364
  H   -9.33100722739565     -3.62542480202119      1.23251543150855
  C   -9.42107469185542     -2.85484058570864     -0.79030328437474
  H   -8.82164848908463     -2.19696250178788     -1.44418608312183
  H   -10.39594980566778     -2.36020958004152     -0.63815921642550
  C   -9.60955102833180     -4.22894161510581     -1.45233920569124
  H   -10.34090882812494     -4.81504523791530     -0.86304749679669
  H   -10.03954843949373     -4.11820313355659     -2.46174995198731
  C   -8.28322439528562     -5.00150694302827     -1.51571481514576
  H   -7.59572968237399     -4.51105543021579     -2.22832927740522
  H   -8.45022485241858     -6.02922940874521     -1.88265501310501
  C   -7.60399435260984     -5.05359048931200     -0.13559328248012
  H   -8.23502207103112     -5.62916921660472      0.56752190650087
  H   -6.64289389582564     -5.57466010211010     -0.20050879149597
  C   -4.98185241037019     -3.72160797661367      0.24568609038876
  C   -3.79819936536608     -3.02198656326790      0.18733328186351
  C   -3.70573739248689     -1.60691684028302      0.17780883581468
  C   -2.39304682830842     -0.97418839015341      0.11077839877802
  N   -2.35592944740669      0.39834113054149      0.10084480669426
  C   -1.22097577083720      1.06447303892799      0.04170911127418
  N   -1.24550297837509      2.41269402549467      0.03510044873662
  C   -0.06362024461489      3.01868121088336     -0.02452042243527
  N   1.15548095700331      2.46929423298199     -0.07992297644019
  C   1.21299621435560      1.12307982189171     -0.07689222503418
  N   2.38274296276687      0.51561364910086     -0.13129958706189
  C   2.48094351980231     -0.85571897608435     -0.12931029591878
  C   1.30916932166718     -1.62299675220161     -0.06470750503741
  C   0.04606840433004     -1.01174873821127     -0.00793667605803
  C   -1.18286752826299     -1.68505705437495      0.05549672032053
  H   -1.14452162556502     -2.77063295775322      0.05879661377922
  N   0.01344948407205      0.39135811205930     -0.01502594263005
  H   1.32429101651453     -2.70880610959093     -0.05385040046508
  C   3.82116505270550     -1.43695778013371     -0.19330708710425
  C   3.96709047541732     -2.84687468561440     -0.20755329831930
  C   5.17657215258213     -3.50278839673904     -0.25911768779998
  C   6.39017775453017     -2.75695841229048     -0.30386555564507
  N   7.61657929078859     -3.39854529701941     -0.40636075016835
  C   7.84216623955904     -4.73848709121598      0.14161638021519
  H   6.90064988966633     -5.29554540329377      0.19268895644850
  H   8.50235619041734     -5.28660821597579     -0.55661436698735
  C   8.50281682171597     -4.66749127959071      1.52988466153975
  H   7.78882604398919     -4.20747182125301      2.23673475986074
  H   8.70482966687866     -5.68988104714204      1.89402254310957
  C   9.79923033077457     -3.84439544570797      1.48597224300780
  H   10.55951011637402     -4.39898983451983      0.90285768107972
  H   10.21266106711540     -3.72230539299188      2.50097493881574
  C   9.56602490851618     -2.47530557177064      0.82782261595823
  H   8.93323722616671     -1.84453014077727      1.47701574912760
  H   10.52292181215537     -1.94264857112665      0.69031740283194
  C   8.87057403308984     -2.65502727235058     -0.53026651166098
  H   8.69009571099539     -1.69673708801404     -1.03146700745619
  H   9.53035472152431     -3.24010358269386     -1.19874274649530
  C   6.28920143487810     -1.35556445375804     -0.28733295232565
  C   5.05300107926884     -0.67705319973692     -0.24630398512976
  N   4.99194496935338      0.69901369143423     -0.23676246750557
  C   5.95426324498587      1.67961941571745     -0.29554223114792
  C   5.79292318666099      3.04503441698029     -0.27387322417617
  C   7.11563449716064      3.59548070554569     -0.36847297596744
  C   7.99050288745306      2.55205910300198     -0.43986105245988
  C   9.46767941401986      2.43371332871199     -0.54941953495362
  H   9.91713814537759      3.43712350309112     -0.57454378966992
  H   9.90229818537511      1.88701224018651      0.30654100806865
  H   9.77161735915075      1.90134377461734     -1.46851478968281
  O   7.27722461448142      1.36098125978852     -0.39539142874320
  H   7.38429948210018      4.64957600329180     -0.38176177695703
  H   4.84711183952993      3.57491851648837     -0.20106030637011
  H   4.01773524783695      1.04826765574806     -0.19221375693551
  H   7.18447555661075     -0.74806579974821     -0.28491013047542
  H   5.18045759058422     -4.59014376470382     -0.30497621018955
  H   3.07260694352693     -3.46837025855547     -0.19029046674781
  C   -0.06954964976815      4.49906644170264     -0.03222667560462
  N   -1.12568559642711      5.26148908826958      0.01581989110210
  C   -0.76221123982495      6.58675744470634     -0.00948407710912
  C   -1.76332272784811      7.61340701804141      0.03444642255276
  N   -2.55233207361658      8.46823116736357      0.06870846341479
  C   0.59435652786108      6.84099517795057     -0.07804696621900
  S   1.47207403703093      5.36080788623497     -0.11356190157048
  H   1.08600881405336      7.81120868911108     -0.10780298753021
  H   -2.88028979892006     -3.60840286744646      0.15814525820398
  H   -4.94616241654780     -4.80858321779574      0.28653612498487
  H   -7.09297722576222     -1.04202781286815      0.29672329136109
  C   -5.94905149545766      1.43323944185496      0.30136059093850
  C   -5.82382348404547      2.80208360950921      0.28940838783457
  C   -7.16119139528916      3.31361308099691      0.39015399338089
  C   -8.00688540698161      2.24548610106896      0.45563717245295
  C   -9.48008074078676      2.08651114287266      0.56760102730500
  H   -9.76753494117055      1.53939111441000      1.48342919873619
  H   -9.95596697871826      3.07738357397621      0.60126962104222
  H   -9.90215778225113      1.53479649358205     -0.29150299069828
  O   -7.26183069729207      1.07431634222937      0.40108320863852
  H   -7.45745811155625      4.36008630812964      0.41168083782569
  H   -4.89244084120808      3.35891910771405      0.21970176336384
