99
Coordinates from ORCA-job ./opt_b3lyp_cdz
  H   -4.06709186551599     -0.98568351648371      0.18803357134807
  N   -5.04110298407266     -0.63469832442772      0.23844826923391
  C   -5.09918999361494      0.73905375435741      0.24231174769653
  C   -6.33354130344995      1.42173492734682      0.28716758393107
  C   -6.42940686605695      2.82313220484010      0.29563120540866
  N   -7.65262505961324      3.46965678586636      0.40173399569547
  C   -7.87848510415308      4.80644621041857     -0.15366853358009
  H   -8.52988235622371      5.36221023997531      0.54679939040053
  H   -6.93541720649188      5.35944384508394     -0.21818662345756
  C   -8.55276815259621      4.72781628806559     -1.53500829241391
  H   -8.75455816246871      5.74835878467289     -1.90445272304912
  H   -7.84719349854766      4.26014849689596     -2.24528102701942
  C   -9.85158861260728      3.90971475310907     -1.47291151141446
  H   -10.27505255754812      3.78196061276590     -2.48307136611173
  H   -10.60434390225366      4.47113015783769     -0.88655064517141
  C   -9.61680500862467      2.54450353216238     -0.80736305931082
  H   -10.57409765560917      2.01612330768317     -0.65695106911394
  H   -8.99241640449466      1.90692824928122     -1.45801029169177
  C   -8.90797555576886      2.73136106547900      0.54277132978036
  H   -9.55937925472037      3.32347853335043      1.21329352474234
  H   -8.72580392929622      1.77601057826120      1.04887602669387
  C   -5.21338198711681      3.56648950659442      0.23792622759370
  C   -4.00588334559334      2.90801889186497      0.18441067850551
  C   -3.86453185037378      1.49726290415743      0.17961765558105
  C   -2.52977860846915      0.90992202468417      0.11690767681511
  N   -2.44512560970027     -0.46083162093757      0.11555675210722
  C   -1.28737173448545     -1.08709788247747      0.06160452068866
  N   -1.26486134212915     -2.43557211849395      0.06250793050812
  C   -0.06187878824745     -2.99983718338263      0.00695818450181
  N   1.13706831230272     -2.40790604808636     -0.05024986252644
  C   1.14768426166042     -1.06064784095514     -0.05389988209328
  N   2.29529470743818     -0.41290824894971     -0.10946730686347
  C   2.34593815463577      0.96090725020756     -0.11489506443475
  C   1.14669680659736      1.68691374719718     -0.05882131865481
  C   -0.09327188270381      1.03199388952796      0.00041670409830
  C   -1.34609537111894      1.66214562534778      0.05758098094806
  H   -1.34594843918090      2.74837647108830      0.05302573263759
  N   -0.07729492980731     -0.37139981728870      0.00268501055179
  H   1.12319398853058      2.77262492064489     -0.05814402840583
  C   3.66426716346500      1.58792536086822     -0.17794014070212
  C   3.76166067077281      3.00246508198346     -0.18257786685312
  C   4.94732264574735      3.69985878206629     -0.23553674883796
  C   6.18590857148249      2.99628421811973     -0.29258061191297
  N   7.38862317861763      3.67996525807337     -0.39782374552909
  C   8.66668040929560      2.98130404457405     -0.53684808188288
  H   8.51494860734559      2.01929064571656     -1.04035020250241
  H   9.29905099756343      3.59177825721953     -1.20912840507044
  C   9.38101586252965      2.82071107913626      0.81382092789549
  H   10.35502271395344      2.32346719703788      0.66452300920682
  H   8.77777208594907      2.16446059951097      1.46589239990767
  C   9.57134619661058      4.19421138919784      1.47660797564183
  H   10.30609382954461      4.77824730090055      0.88952266778361
  H   9.99808639788305      4.08213309212986      2.48723826949703
  C   8.24702819921388      4.97051576547061      1.53619757052680
  H   7.55607704961863      4.48202393383847      2.24681935541109
  H   8.41591993191909      5.99769634964428      1.90370233071794
  C   7.57197252641215      5.02464183379870      0.15413507641578
  H   8.20655908914244      5.59853811302276     -0.54712992583004
  H   6.61213769894296      5.54834447561949      0.21618231560221
  C   6.13342799909226      1.59231260010049     -0.28400207639339
  C   4.92175356163200      0.87092106849945     -0.24016093947873
  N   4.90902191683022     -0.50573697718961     -0.23698946888088
  C   5.90496998970487     -1.45208692599421     -0.30915379927739
  C   5.79207565707047     -2.82206931417643     -0.28531764857240
  C   7.13147434390272     -3.32579366351503     -0.40119176940342
  C   7.96777099057724     -2.25217423731266     -0.48599467483459
  C   9.43801378791155     -2.08216801062721     -0.61832860989945
  H   9.70867227996064     -1.53827569269837     -1.54106090507212
  H   9.86670279503296     -1.52198727116160      0.23191121007702
  H   9.92153932907553     -3.06931332146191     -0.65241196330647
  O   7.21396168166369     -1.08668447751889     -0.42993527506386
  H   7.43587794974432     -4.37000980203318     -0.41908117823971
  H   4.86737870477858     -3.38588800991960     -0.19782410949071
  H   3.94887787265411     -0.88980206219183     -0.18301984661472
  H   7.04909852641760      1.01604008749508     -0.28966393626176
  H   4.91360317251442      4.78703027029030     -0.27244592423982
  H   2.84647792069509      3.59260895602808     -0.15396281479906
  C   -0.01477696808629     -4.47902547128232      0.00694576834169
  N   -1.05025591630059     -5.28099305681878      0.05744136001166
  C   -0.65840034268844     -6.58236666822631      0.04067373993250
  C   0.70805517005650     -6.80209659330881     -0.02409562356631
  C   1.37845521357634     -8.05213644852247     -0.05413894127569
  N   1.92539694255536     -9.08147830557482     -0.07856558946009
  S   1.55173365967256     -5.27391411764089     -0.06670233015840
  H   -1.40345219045739     -7.37755282333931      0.07737090739398
  H   -3.10888099202236      3.52594066120270      0.15597751995810
  H   -5.21529980242135      4.65414954694912      0.27560270409426
  H   -7.23018997930358      0.81568165444874      0.29293610294225
  C   -5.99936537559229     -1.61868609071050      0.31019156586243
  C   -5.82615389024581     -2.98260651609319      0.30838647648677
  C   -7.14560988068715     -3.54001618826880      0.40472160519705
  C   -8.02869012543094     -2.50189593106984      0.45800744379462
  C   -9.50716583974546     -2.39366581549476      0.56055867947354
  H   -9.94878296461420     -3.40017652945699      0.59794057556558
  H   -9.81884215544586     -1.85108913013586      1.47113211316464
  H   -9.94300692692218     -1.86223720918591     -0.30440538177201
  O   -7.32458905333625     -1.30601566386207      0.39971699476501
  H   -7.40659584400915     -4.59577492625471      0.43179313974907
  H   -4.87452597281573     -3.50521826574633      0.24777346636006
