16
Coordinates from ORCA-job ./opt_b3lyp_cdz
  C   0.46992768774146      9.71019727530560     -2.77771384458812
  N   -0.86902847382019      9.96576517654185     -2.71188995949017
  C   -1.61046791967509      8.93466482937942     -2.36158799380947
  C   -3.04232263658627      8.97050608014851     -2.22761533913902
  N   -3.77369999042171      7.94071428519336     -1.87873847316377
  N   -3.19584742745255      6.74226698102025     -1.61601887301624
  C   -1.88127814839840      6.63835113541891     -1.72001017777802
  C   -1.17322799679530      5.41320799804729     -1.46329724033881
  N   0.12329193092969      5.28946826382141     -1.56019842549744
  N   0.90487057058206      6.34560879077025     -1.92106430851899
  C   0.34090468422700      7.50785115743404     -2.17545121278160
  N   1.09948324130764      8.58444093619123     -2.53958576577033
  N   -1.05714660497307      7.69309764032043     -2.08481927288474
  H   1.09162081998437     10.56404473471297     -3.06856764254865
  H   -3.55103165570070      9.91583171524123     -2.42956438881168
  H   -1.75615808094891      4.53708300045318     -1.17054708186295
