101
Coordinates from ORCA-job ./opt_b3lyp_cdz
  H   -4.12681291303103      0.90583309857893      0.21259795969053
  N   -5.11648542472631      0.60030241751333      0.26397346713332
  C   -6.02775105134563      1.62645642973953      0.35081181469380
  C   -5.79206026580373      2.98099496205109      0.36155249241627
  C   -7.08393294087606      3.59730379165322      0.47199808414729
  C   -8.01353587364651      2.60039510725883      0.52066069882315
  C   -9.49482859412878      2.55924549061412      0.63147851488663
  H   -9.82593903027858      2.02059178928152      1.53754254033904
  H   -9.96011150878225      2.05895709498304     -0.23677280177273
  H   -9.88926682755794      3.58454431541594      0.68364286768068
  O   -7.36562452380906      1.37407355369812      0.44586102117059
  H   -7.29580279542293      4.66364854766327      0.51121504224496
  H   -4.81785376132030      3.46015769124524      0.30004399731303
  C   -5.23779184554682     -0.76942024335641      0.25033941564794
  C   -6.50222584551560     -1.39526661203912      0.29005493151548
  C   -6.66222968004362     -2.79063324965307      0.28007604242201
  N   -7.91424784868557     -3.38214817720054      0.38176909887130
  C   -9.13354749917000     -2.58694038714129      0.52995199212258
  H   -9.81603890457920     -3.15845748919520      1.18725345983806
  H   -8.90840136064178     -1.65022785915130      1.05342444194042
  C   -9.82581482560096     -2.34311371036895     -0.81973114356437
  H   -10.75699018295239     -1.77113263741224     -0.66469196282705
  H   -9.16774930144410     -1.72623495600620     -1.45697583905248
  C   -10.12312656240576     -3.68415120118598     -1.50901086721934
  H   -10.53584256842909     -3.51956704779147     -2.51831812108245
  H   -10.90432926612949     -4.21846767467063     -0.93460514598861
  C   -8.86468037219366     -4.56253218519913     -1.58020946236072
  H   -9.11327203817971     -5.56568797841458     -1.96835995438892
  H   -8.13417227555084     -4.11687690628584     -2.27935120552276
  C   -8.20188971994262     -4.69674735021632     -0.19761858651845
  H   -7.28647338303285     -5.29393250660301     -0.26677814447632
  H   -8.88300680193464     -5.23174825795232      0.49064739191404
  C   -5.48211233618575     -3.58796404116074      0.20842689052064
  C   -4.24548138289846     -2.98470668187084      0.16052966780921
  C   -4.03950347495840     -1.58236316003351      0.17467179883767
  C   -2.67867797688503     -1.05489504486877      0.11725976978306
  N   -2.53383254216173      0.30993813361872      0.12717642581141
  C   -1.34786867568029      0.88419333432925      0.07822366889940
  N   -1.26130592474980      2.22819565808294      0.08946291527330
  C   -0.03062536085261      2.73723127223220      0.03711295373312
  N   1.13835719474875      2.09694625561511     -0.02482680904535
  C   1.07966832505135      0.75048044611133     -0.03712367793814
  N   2.19628027106867      0.05211094258518     -0.09600778645631
  C   2.19000058030846     -1.32123418738550     -0.11056976851452
  C   0.96062024343890     -1.99632389150190     -0.06203259726079
  C   -0.25005739683857     -1.28760446860240      0.00092369703665
  C   -1.53061506696003     -1.86044748279697      0.05268024970560
  H   -1.58053517430506     -2.94548338387076      0.04106618755818
  N   -0.17258626843713      0.11396802786761      0.01381363250674
  H   0.89110121919461     -3.08030021306063     -0.06982842240218
  C   3.48449262503392     -1.99531201245855     -0.17543046646758
  C   3.53305331618684     -3.41186900714343     -0.18993223483839
  C   4.69492222597487     -4.14833879192883     -0.24706422790908
  C   5.95677544293050     -3.48628935028218     -0.29855681093127
  N   7.13578825596926     -4.21064859193405     -0.40914362440968
  C   8.43653119755941     -3.55394442523593     -0.54178706378569
  H   9.05040962105839     -4.18243806968510     -1.21464574521126
  H   8.31766769306369     -2.58568523298872     -1.04223501132377
  C   9.15235954007058     -3.42142294967688      0.81124945752854
  H   10.14279226745963     -2.95641896197729      0.66597183835762
  H   8.56977187000406     -2.74739107020726      1.46393424986471
  C   9.29483073801779     -4.80246376866948      1.47038619591846
  H   9.72278167656636     -4.70783132133646      2.48232167730225
  H   10.01085927449293     -5.40930685034854      0.88321671268810
  C   7.94495742208533     -5.53387288331148      1.52430902512502
  H   7.26854518876809     -5.02370061937002      2.23367827381836
  H   8.07794396197832     -6.56692265932376      1.89021096900943
  C   7.27334009011396     -5.56195929061405      0.13986063611505
  H   7.89157033558513     -6.15428634261634     -0.56074057936275
  H   6.29675356857488     -6.05441787111950      0.19680291438564
  C   5.95289793797921     -2.08173575742690     -0.27960881218643
  C   4.76603332452658     -1.31992925667322     -0.23061350066676
  N   4.79839711605971      0.05518591850479     -0.21559328504815
  C   5.81945200437983      0.97402402747861     -0.28059344678725
  C   5.73855901107512      2.34649923026231     -0.26407536699958
  C   7.09181824794135      2.81576117302937     -0.36091806078506
  C   7.90305111958713      1.72156984575337     -0.42891273920407
  C   9.37056354931109      1.51580572661645     -0.53940390537377
  H   9.64176827910529      0.96302391365882     -1.45678519678489
  H   9.77348148555547      0.94764122722572      0.31817322743117
  H   9.87821256348064      2.49096249138964     -0.56877759985623
  O   7.12057777322494      0.57479352074389     -0.37950531097196
  H   7.42215348087813      3.85210732291413     -0.37832141683093
  H   4.82514946720967      2.93182850307785     -0.19370720238152
  H   3.84897632443092      0.46814133006789     -0.16159557357801
  H   6.88743439641409     -1.53598731779873     -0.27981058499037
  H   4.62507855172052     -5.23352638139042     -0.29186222341622
  H   2.59743621754274     -3.96978066960955     -0.16589619480040
  C   0.04517868316274      4.21286770520948      0.04973482954330
  N   -0.93416953873614      5.07619107348827      0.10822789115106
  C   -0.31483027466377      6.30807709023156      0.09125333908209
  C   1.03525961442053      6.11977302091488      0.02181362282417
  C   2.19212392846547      7.05671021224123     -0.02672938851426
  F   1.73944516646561      8.32710769062062      0.01645507918102
  F   3.03648588059065      6.87974413527114      1.01045705815028
  F   2.91924896307571      6.91222077673292     -1.15400964985720
  O   1.28229448483822      4.78445757598047     -0.00551649112509
  H   -0.87023748762982      7.24134451836270      0.12950130238262
  H   -3.37797735309134     -3.64281161753571      0.11991526013786
  H   -5.53374183700652     -4.67485788241296      0.23054514100727
  H   -7.36988311093869     -0.74857083759414      0.30692310668934
