101
Coordinates from ORCA-job ./opt_b3lyp_cdz
  H   4.11323505471993     -0.68781249319249      0.20345509171480
  N   5.09535948034691     -0.35901558776857      0.25330472855489
  C   5.18444412827042      1.01302812585628      0.24597402872811
  C   6.43384338203989      1.66830706821526      0.28665748125730
  C   6.56082856006425      3.06716216840649      0.28350626312739
  N   7.79847645502511      3.68743309557492      0.38560426572836
  C   9.03661756757088      2.92152617652104      0.53139892248845
  H   9.70370524982311      3.50554451807326      1.19355402395287
  H   8.83360323619683      1.97634967677587      1.04862068246686
  C   9.73705011328546      2.70306475880206     -0.81838576051766
  H   10.68186030785845      2.15349516457604     -0.66487748461191
  H   9.09565752176492      2.07374595815319     -1.46046201798184
  C   10.00233990329917      4.05507120587788     -1.49922826750252
  H   10.42042375241704      3.90662358566337     -2.50881975937684
  H   10.76940584106338      4.60493796800354     -0.92047121187987
  C   8.72286786322500      4.90272435685869     -1.56737245052854
  H   8.00475686122812      4.44378531324741     -2.27075159181441
  H   8.94748010656495      5.91409959551658     -1.94873143360351
  C   8.05424917388975      5.01222098831600     -0.18536404658006
  H   8.72032313322092      5.56024889321692      0.50737653833984
  H   7.12421827600302      5.58648845630972     -0.25342489350560
  C   5.36199991117129      3.83696387151397      0.21833517797184
  C   4.13995449580277      3.20507837996788      0.16905475868177
  C   3.96718341307223      1.79804276083046      0.17581674750565
  C   2.61952187643630      1.23942959837579      0.11644249826536
  N   2.50586131280207     -0.12850424347432      0.12283177312553
  C   1.33455270859094     -0.73086425924856      0.07163842209243
  N   1.28352655794833     -2.07760323990007      0.07949820180114
  C   0.06909781245250     -2.61838719764747      0.02500516376073
  N   -1.11645537800392     -1.99993491161280     -0.03624502085005
  C   -1.09805629514414     -0.65346105610415     -0.04550600962084
  N   -2.23214437266270      0.01885881407747     -0.10383490508441
  C   -2.25339691848732      1.39279775524788     -0.11510949820278
  C   -1.03945346208669      2.09415623728048     -0.06349619066109
  C   0.18653886462926      1.41344071496753     -0.00115207320389
  C   1.45248023170204      2.01707975436082      0.05279906203173
  H   1.47579763031100      3.10303640655655      0.04289977697514
  N   0.14062899657261      0.01082245331055      0.00830418838927
  H   -0.99331864358825      3.17914406135309     -0.06852019009496
  C   -3.55894222427149      2.04725730689209     -0.17925068504207
  C   -3.62732969624589      3.46321940145272     -0.18734199956820
  C   -4.79869527880833      4.18474296274305     -0.24161106963895
  C   -6.05113134063655      3.50646164836004     -0.29634492219995
  N   -7.24007208690385      4.21448536356050     -0.40316016828654
  C   -7.39594007305555      5.56250635812125      0.14898198750157
  H   -6.42588246091221      6.06734971326379      0.20886724201983
  H   -8.02057166757353      6.14866707440456     -0.55112306867731
  C   -8.06929024053468      5.52208377022605      1.53230887013785
  H   -7.38708770826374      5.01956066949632      2.24159959697032
  H   -8.21673781423597      6.55240063134873      1.90031859751335
  C   -9.40911322679269      4.77269965333171      1.47484550495720
  H   -9.83683680429507      4.66961399603989      2.48603731952075
  H   -10.13262613619401      5.37137461305150      0.88850376192168
  C   -9.24748566784478      3.39543641142268      0.81220452091920
  H   -10.23154937714744      2.91787290504905      0.66439725062804
  H   -8.65683721309221      2.72734608644098      1.46378237368707
  C   -8.53182007090676      3.54106021060090     -0.53953202055965
  H   -8.39967912659900      2.57584370800757     -1.04249279509305
  H   -9.15310362264013      4.16324146651067     -1.21146205563972
  C   -6.02740625474975      2.10179596681297     -0.28421727865582
  C   -4.83059743287090      1.35593250533508     -0.23891523025064
  N   -4.84559259197681     -0.02077103243238     -0.23202728512258
  C   -5.86017101382530     -0.94701021393645     -0.30163784919877
  C   -5.77502039849768     -2.31894305388233     -0.27289594271451
  C   -7.12426038341095     -2.79573300411729     -0.38863461934229
  C   -7.93866424891960     -1.70576096217659     -0.47806738947020
  C   -9.40505724095738     -1.50654582679394     -0.61250077219421
  H   -9.82350870063859     -0.93559788308170      0.23572023587633
  H   -9.90837724455904     -2.48384777803171     -0.64455615859102
  H   -9.66385608058648     -0.95974079561771     -1.53694029894790
  O   -7.16154722757461     -0.55559234258343     -0.42518194087842
  H   -7.44978810928575     -3.83363191625103     -0.40327630097043
  H   -4.86184764893202     -2.90084348286453     -0.18245324940681
  H   -3.89280194195794     -0.42355208679792     -0.17681547966429
  H   -6.95466983129129      1.54433147404027     -0.28796253409867
  H   -4.74280765802535      5.27093778874129     -0.28122662320529
  H   -2.70017763505300      4.03447853856064     -0.16019308220170
  C   -0.00599780178998     -4.09657998557797      0.03113615277936
  N   1.01092048239093     -4.91701480788046      0.08995623276611
  C   0.58542204667627     -6.21452458424478      0.07604085829877
  C   -0.77602656969912     -6.39827884418535      0.00534874088590
  C   -1.49988289738149     -7.70493195721986     -0.02793598500794
  F   -2.36851617870686     -7.83363094533269      1.00070173127183
  F   -0.62967410219261     -8.73520119133740      0.04365676748713
  F   -2.22067525890134     -7.86048123673166     -1.16183695849930
  S   -1.59011971150935     -4.86483600970290     -0.04702226740926
  H   1.31331587038427     -7.02417264457222      0.11988653905102
  H   3.25702204948357      3.84266762782303      0.13401349055305
  H   5.38818841259522      4.92460985276890      0.24683157613972
  H   7.31665749257166      1.04232266834404      0.29867120271520
  C   6.03073932991924     -1.36396357639277      0.33336108236268
  C   5.82647012666796     -2.72357282621184      0.33998777135063
  C   7.13268072190056     -3.31015847373715      0.44328382150293
  C   8.03910725041269     -2.29210603317757      0.49198236924253
  C   9.51944635325171     -2.21693167866101      0.59725280537209
  H   9.84151966385360     -1.67467273607463      1.50441651985004
  H   9.93785868645326     -3.23297140446077      0.64334117801138
  H   9.96942785144972     -1.70221810893793     -0.27061618123526
  O   7.36265766261605     -1.08087274643374      0.42418540914980
  H   7.36939820638354     -4.37141880347434      0.47784573534890
  H   4.86323778650820     -3.22469020968326      0.28042684037607
