90
Coordinates from ORCA-job ./opt_b3lyp_cdz
  C   -9.27256898402672      1.90536802357836      0.94462505720177
  H   -10.17732472430496      1.99386184131286      0.31305368366906
  H   -9.45250691045000      2.52824355604475      1.83654323240269
  C   -8.06149677527262      2.42730442584664      0.15564055704127
  H   -8.25839031310292      3.44073613185604     -0.23419753464824
  H   -7.18063893279872      2.49965986136746      0.81856757093645
  C   -7.73996631920549      1.47639587421843     -1.00719202156380
  N   -7.51353082096397      0.10770559864482     -0.54208806205023
  C   -6.24479984639585     -0.41110792875718     -0.33881181010915
  C   -5.08532944071874      0.35998086860359     -0.55897564530560
  C   -3.78404385248335     -0.15654584546483     -0.42083711775014
  N   -2.67361093347570      0.63002314688681     -0.67164851588002
  C   -2.57035295815723      2.00561532025226     -0.85909773626577
  C   -3.36723444983048      2.97133695256417     -0.21228048566538
  C   -3.11711973044882      4.32314022262145     -0.45241462317331
  N   -2.15665430845782      4.79608334394062     -1.26047558111671
  C   -1.39355569507507      3.86902965374418     -1.86151786558546
  C   -1.55261283124396      2.49371264766952     -1.70449670881405
  H   -0.90445454231606      1.79577970658768     -2.24007720872392
  H   -0.60352496210458      4.24937196276781     -2.51861335911991
  H   -3.72928039733466      5.07769909253350      0.05497988491209
  H   -4.13912397403274      2.68104529690840      0.49972581119888
  H   -1.79726776305660      0.09038979109403     -0.67671591349740
  C   -3.61014280232733     -1.53912787098915     -0.06673051780553
  C   -2.32804547073692     -2.23266249186150      0.04040076930224
  N   -2.36419866022286     -3.54761334529711      0.31092946447224
  C   -1.20910075474131     -4.22049025599936      0.35333774609635
  C   -1.16251853813918     -5.60801331138808      0.57273146429094
  C   0.05900803458593     -6.27448050504779      0.58697116320900
  C   1.25993609793763     -5.59675251303678      0.39272278932061
  C   1.26077959783139     -4.20840044127866      0.18256884859342
  N   2.39491117868665     -3.51629301527733      0.01440972361338
  C   2.31191908863488     -2.18539231359545     -0.12750646121842
  N   1.13917648761447     -1.49000928022363     -0.16729889135615
  C   -0.00661702332797     -2.16119434902865     -0.05138044560459
  N   0.01580483817135     -3.55198691739331      0.16712694741113
  N   -1.17575684948183     -1.52713894517164     -0.14634047213147
  C   3.56905750616033     -1.45249873905828     -0.27453851932303
  C   4.74225324267681     -2.19359205340838     -0.55150281193945
  C   5.98038959498328     -1.61732146383823     -0.73679630681133
  C   6.13053698285805     -0.20194118428156     -0.66836796699930
  N   7.34658462879384      0.40455985609969     -0.94287025128260
  C   8.62658931767216     -0.28428416068118     -0.76015714628239
  H   8.49188327118202     -1.36928733604429     -0.81534430172807
  H   9.28959177360981     -0.00081365164645     -1.59924960188780
  C   9.28352271419570      0.11289482499702      0.57346923118256
  H   8.65531857298462     -0.26221313849938      1.40154248882323
  H   10.26532379558408     -0.38381887456731      0.66209379635168
  C   9.43888380407530      1.63744464976117      0.68193788575199
  H   10.19586762126480      1.97604445858843     -0.05129159888508
  H   9.82216682309712      1.91629166017451      1.67754579264581
  C   8.11062584442753      2.35430929731998      0.39314510239399
  H   8.25920107950920      3.44692288788734      0.35028311997679
  H   7.38887331433669      2.15733854396400      1.20599027336656
  C   7.52048537134352      1.85749413146025     -0.93538987966086
  H   8.22066465655796      2.10524764527353     -1.75558620579809
  H   6.57470815259343      2.35558032762967     -1.17742589650972
  C   4.97834860007432      0.55163075042039     -0.36114546309146
  C   3.71729322439457     -0.03153589424635     -0.14950598022657
  N   2.62038098696662      0.75885363661346      0.16654150223774
  C   2.57519241895821      1.98554727777723      0.82190068917260
  C   1.40468116355205      2.76364523562436      0.71323293967524
  C   1.32239487455433      3.97777635460941      1.38975472989952
  N   2.29535400282235      4.48676120465827      2.16404464888159
  C   3.39723928999833      3.73121263740183      2.27562727949891
  C   3.59576610993233      2.50146841261065      1.64677118489345
  H   4.51377427841989      1.94385115725221      1.82819402247071
  H   4.18719199775148      4.13013877961333      2.92309598298392
  H   0.41562707742956      4.58486585955743      1.29137059853916
  H   0.57205559640764      2.42515981210216      0.09387386296556
  H   1.72673389327798      0.27692279357014      0.01887582225472
  H   5.04061655878959      1.63286389645609     -0.29406470628022
  H   6.82254769653610     -2.26130699214053     -0.98286120860440
  H   4.63566927712761     -3.27488374085118     -0.63165997122220
  H   2.22766313231393     -6.09475819259012      0.40479035447847
  H   0.07620254817961     -7.35438726995331      0.75420854400285
  H   -2.11386501950757     -6.11681470782165      0.71688653576520
  C   -4.78958256061241     -2.29018613210953      0.15999649961931
  C   -6.05943651585649     -1.76892490041099      0.05385325944787
  H   -6.90909218650550     -2.42689834511433      0.22541233911468
  H   -4.66021102116663     -3.33923641267841      0.42240281092370
  H   -5.18113516709994      1.39453783075346     -0.86834183206190
  C   -8.69962500680608     -0.42814939573307      0.13084729580628
  H   -9.53219934242151     -0.43466097957604     -0.59765969671310
  H   -8.53432485143026     -1.46705541624544      0.43349874217734
  C   -9.08293739700978      0.43467085372469      1.34593542611002
  H   -10.00499817255137      0.03604162579850      1.80345064463112
  H   -8.28326950078560      0.35082646781271      2.10387831762170
  H   -8.60413240239381      1.44685258146632     -1.69766802280557
  H   -6.88565890337566      1.82362830987832     -1.59949459573342
