88
Coordinates from ORCA-job ./opt_b3lyp_cdz
  C   -2.61922864120582     -2.52463505261392     -0.05098052178725
  N   -2.58577414150982     -1.08189581375264     -0.05621168227945
  C   -3.68563284109405     -0.28491938895541     -0.08120988174523
  C   -4.98138884768469     -0.86629553716139     -0.10146239991937
  C   -6.13204266415528     -0.08495462104721     -0.12861048608344
  C   -6.03951467556932      1.32193859394135     -0.12497383749400
  C   -4.78504849391272      1.90535152611962     -0.09343203489871
  C   -3.58726444453922      1.15501287571564     -0.07148318134981
  C   -2.31863955554319      1.89284793206113     -0.04340843008051
  N   -1.15484784314620      1.18557698937368     -0.02187889682120
  C   0.00080669913919      1.84920579420507      0.00326200551827
  N   1.15588182929800      1.18447475960843      0.02569313681262
  C   2.32028964107657      1.89063772044398      0.05011165635967
  N   2.38623366971512      3.22902943005984      0.05278613701427
  C   1.23995891966021      3.92305450549304      0.03201863885840
  N   0.00141867513695      3.25425903133237      0.00612659006798
  C   -1.23653831681023      3.92423284245438     -0.01703108815807
  N   -2.38341739565641      3.23129572349680     -0.04059814979193
  C   -1.21247863725031      5.32809058801438     -0.01381213756820
  C   0.00261815340052      6.00750196544682      0.01170070450043
  C   1.21712218701625      5.32693485006234      0.03447643455972
  H   2.17850612606583      5.83685948235705      0.05463016097255
  H   0.00309396505924      7.10027249871486      0.01390717789562
  H   -2.17341750664834      5.83893069236687     -0.03190159728022
  C   3.58825988421728      1.15158207379731      0.07531956244001
  C   4.78668680360214      1.90075758439844      0.10147687261265
  C   6.04061817175102      1.31610086558264      0.13117070783511
  C   6.13191470805701     -0.09087680185353      0.12849066085237
  N   7.40545092632360     -0.71836845043734      0.16170636319607
  C   7.82385598961066     -1.68909058830415      1.08396923652312
  C   9.16188917843751     -2.06249456197765      0.78559557730104
  C   9.56783932262852     -1.28606512115498     -0.37015092531445
  C   8.46250205731101     -0.46752554414904     -0.72538589175020
  C   8.51206096298261      0.38510867229450     -1.83593072502515
  C   9.69652440245156      0.42440775838042     -2.57346149125125
  C   10.80646828384096     -0.36828621428310     -2.22456294032443
  C   10.74625089325751     -1.22757884068287     -1.12836512829271
  H   11.60344483347190     -1.85191841747787     -0.86491007644055
  H   11.71881369986104     -0.31216454702418     -2.82240481601675
  H   9.75862084337590      1.08403958199175     -3.44232336138659
  H   7.65438126713393      0.99521391900560     -2.12096026945062
  C   9.81242941663091     -3.01203750869577      1.58695877927053
  C   9.13285560777659     -3.56720424751972      2.67028537616413
  C   7.81342375295093     -3.17365457039097      2.96365358839973
  C   7.14269899834025     -2.23208119832316      2.18120971479432
  H   6.12495473123292     -1.92509526746113      2.42396593776302
  H   7.30076592414944     -3.61029525493076      3.82419113442537
  H   9.62796393810820     -4.30848689711762      3.30138300388810
  H   10.84115675413448     -3.30745830790466      1.36685675602693
  C   4.98059271116515     -0.87107101977928      0.09698852918734
  C   3.68536541963317     -0.28846410100792      0.07831665344696
  N   2.58483746823625     -1.08433850590797      0.04827553312212
  C   2.61698144211591     -2.52707705289839      0.03801876732858
  H   3.13813653112970     -2.93217181611414     -0.84985533642174
  H   3.11160655742598     -2.94426806646845      0.93516941175726
  H   1.58330878842884     -2.90021303140566      0.02014721505778
  H   1.69538256999653     -0.58168585276801      0.02425677538511
  H   5.08435840703483     -1.95393128925608      0.06507019300707
  H   6.94303870382595      1.92493053486198      0.18256108631751
  H   4.68934230790405      2.98549987401504      0.11206492571223
  H   -4.68675754747391      2.99004569225219     -0.09906562805487
  H   -6.94143299453519      1.93178804443165     -0.17296858506081
  N   -7.40614366798013     -0.71118382271955     -0.16374743929224
  C   -8.46236909544568     -0.46346850330833      0.72520225072426
  C   -9.56864480620941     -1.27944319518920      0.36702721138852
  C   -9.16415718957249     -2.05097759697701     -0.79250857504339
  C   -7.82601939247033     -1.67735756696440     -1.09011070425814
  C   -7.14609284722314     -2.21592521427070     -2.19029204001308
  C   -7.81816277503037     -3.15335328775135     -2.97654095718224
  C   -9.13772340434509     -3.54711563254478     -2.68404096225974
  C   -9.81607499101108     -2.99631412282249     -1.59772303383009
  H   -10.84489883509775     -3.29185087062113     -1.37824038832903
  H   -9.63390739145016     -4.28509750298522     -3.31816399441675
  H   -7.30647382901201     -3.58650456203680     -3.83941534180880
  H   -6.12825884283956     -1.90869825960338     -2.43236440887836
  C   -10.74648245892218     -1.22338799827845      1.12631513910097
  C   -10.80521718690025     -0.36902290451729      2.22643911222512
  C   -9.69435706168784      0.42113381575181      2.57816004288924
  C   -8.51043769698193      0.38416207936134      1.83963507162738
  H   -7.65203930676117      0.99223735650075      2.12683126827903
  H   -9.75528977212888      1.07687659542964      3.45004294071270
  H   -11.71710421277896     -0.31483451265832      2.82515809700977
  H   -11.60439405348879     -1.84579301835253      0.86062535453859
  H   -5.08609323690616     -1.94919514594182     -0.07432323208430
  H   -1.69590314459400     -0.58015014023420     -0.02882569531006
  H   -3.11642511439711     -2.93801600460403     -0.94843677717015
  H   -1.58585918061413     -2.89878196743111     -0.03715260906796
  H   -3.13859316837384     -2.93256988932264      0.83667820183399
