98
Coordinates from ORCA-job ./opt_b3lyp_cdz
  C   2.59589887326860      2.81064722155453     -0.08968288243112
  N   2.57343102069577      1.36928452243949     -0.07652952677271
  C   3.68079481852916      0.57964736043001     -0.09960828677370
  C   4.96846730289124      1.17015596376652     -0.12445605265160
  C   6.13649011452600      0.40380705043272     -0.15067083209871
  C   6.03942942678606     -1.00950502224126     -0.13945297446980
  C   4.79074312111403     -1.59819618718644     -0.10502807643758
  C   3.58315262278189     -0.86104845685596     -0.08353284330963
  C   2.32251090321676     -1.60325497563842     -0.05341939939371
  N   1.15372796872038     -0.90192899573686     -0.02806785125538
  C   0.00034370408865     -1.56819034481729     -0.00116509458195
  N   -1.15351690711841     -0.90279555006360      0.02663667022811
  C   -2.32179076107941     -1.60500283894848      0.05089449603182
  N   -2.38563638639112     -2.94494501354568      0.04736797808229
  C   -1.23786647309343     -3.63988341567220      0.02292771100333
  C   -1.23083564442852     -5.05031763732939      0.02149831283448
  C   0.00183607114473     -5.70549732934876     -0.00389716232930
  C   1.23403325717906     -5.04939201875972     -0.02846574248144
  C   1.24004478779816     -3.63895348600724     -0.02810057905843
  N   2.38731082142284     -2.94315400591471     -0.05172277667294
  N   0.00085008574328     -2.97588468381064     -0.00212877046832
  C   2.54751951411257     -5.78322482836462     -0.05597327134936
  H   3.17426286627141     -5.51594622880000      0.81079040780317
  H   2.38581113365319     -6.87158416573984     -0.04885673573940
  H   3.13416516951450     -5.52183630713982     -0.95222551963145
  H   0.00223348846983     -6.79992225917644     -0.00457847617734
  C   -2.54379664404083     -5.78513239168887      0.04798881055742
  H   -2.38127657080077     -6.87336994385343      0.04076934723320
  H   -3.13123802499540     -5.52429773936775      0.94386779878075
  H   -3.17015908425793     -5.51820167436448     -0.81917321056151
  C   -3.58293083154018     -0.86369219979822      0.08181892571559
  C   -4.79007794562208     -1.60160848929460      0.10171514161196
  C   -6.03913245593631     -1.01372141235854      0.13656113459166
  C   -6.13704914306106      0.39951479922383      0.14990629779305
  C   -4.96947440901308      1.16660506831462      0.12536908612229
  C   -3.68144197756546      0.57689895655072      0.10016132306670
  N   -2.57449975967460      1.36718639702905      0.07892054425298
  C   -2.59777490980801      2.80852048152843      0.09387928012328
  H   -3.10129599393556      3.21323112526100      0.99209444328504
  H   -1.56163432539315      3.17620248412977      0.09456035017175
  H   -3.10722760113630      3.23482253874073     -0.79181565588431
  H   -1.68868646896132      0.85763698927705      0.04413812156735
  H   -5.05568645345031      2.25100508384981      0.11876320545718
  N   -7.40324029486229      1.02381575179414      0.19757276246496
  C   -7.57550128764229      2.27259954750084      0.86553170077250
  C   -8.25248068562090      3.32948590484874      0.23396919623356
  C   -8.43962683514171      4.54322768498735      0.89971252102891
  C   -7.94338121637218      4.72647413907009      2.19420399786768
  C   -7.26342851779493      3.67709505045920      2.82297050369284
  C   -7.08603537248582      2.45569043156070      2.17089189500002
  H   -6.56605406163079      1.63433425700231      2.66710161733655
  H   -6.87888164254658      3.80393428543129      3.83811075557703
  H   -8.08692669073573      5.67830195366640      2.71052833178216
  H   -8.96901279834214      5.35557216395222      0.39549171921157
  H   -8.63361104222042      3.19188694643243     -0.77958258162366
  C   -8.52202676192562      0.44543853090911     -0.47010028957963
  C   -9.77324725646485      0.38701616334233      0.16813271784594
  C   -10.87447589600047     -0.16224088782558     -0.49117846552805
  C   -10.74427959112736     -0.67456374185257     -1.78642928909454
  C   -9.49884005140991     -0.62304389835730     -2.42128168334056
  C   -8.39594981905415     -0.05991885603534     -1.77603222750372
  H   -7.42883721992556     -0.00970667504863     -2.27920858181625
  H   -9.38443074324867     -1.01273769941732     -3.43589577910949
  H   -11.60632375131962     -1.10964288156016     -2.29699264977386
  H   -11.84026855583426     -0.20083155272036      0.01885968138730
  H   -9.87580888299134      0.77551123681039      1.18302868998927
  H   -6.93888362424965     -1.62714240178740      0.17169874353206
  H   -4.70249621345439     -2.68738887652766      0.10413965510233
  H   4.70381584278564     -2.68402612685770     -0.10913281630632
  H   6.93953506884079     -1.62232986283016     -0.17590421201337
  N   7.40228403607178      1.02894949089597     -0.19794353997203
  C   8.52172810961649      0.45021400459350      0.46831208468507
  C   9.77269619460571      0.39356277291619     -0.17057932490666
  C   10.87456040871171     -0.15605663669841      0.48736564992707
  C   10.74526743388376     -0.67049950354516      1.78186590072945
  C   9.50008442116819     -0.62074536301913      2.41736142975762
  C   8.39655540853464     -0.05727925451895      1.77350229624183
  H   7.42964332364514     -0.00846475631676      2.27720236878698
  H   9.38637372992119     -1.01211030105464      3.43141019919900
  H   11.60780916208128     -1.10585483279438      2.29135238471504
  H   11.84014343539278     -0.19325381026646     -0.02317258974664
  H   9.87455933896596      0.78371650529469     -1.18490855323163
  C   7.57350320585343      2.27881687243217     -0.86414108256534
  C   8.25018042726368      3.33515842972762     -0.23134315152968
  C   8.43631540429267      4.54998820594693     -0.89538338403014
  C   7.93934797579121      4.73486114384159     -2.18936649492575
  C   7.25969440597248      3.68602120788601     -2.81935580166258
  C   7.08330942791938      2.46355472222802     -2.16899618637385
  H   6.56356305794462      1.64263476007157     -2.66617279789587
  H   6.87459194671200      3.81413748665988     -3.83412471006288
  H   8.08210285770573      5.68753135450251     -2.70435453607500
  H   8.96547734293972      5.36188998142171     -0.39021569288891
  H   8.63187383184326      3.19628465762237      0.78182337718503
  H   5.05403755318312      2.25459701996716     -0.11623609736066
  H   1.68789161255069      0.85918111477242     -0.04276280080922
  H   3.09845051681194      3.21683215599963     -0.98778560955854
  H   1.55955306745481      3.17775156569259     -0.08898854515974
  H   3.10584654445596      3.23605902675620      0.79614577423190
