104
Coordinates from ORCA-job ./opt_b3lyp_cdz
  C   -2.61608543830618     -2.37933747829223      0.06684741186395
  N   -2.58610524427174     -0.93820852248146      0.07045793198822
  C   -3.68927220914438     -0.14327439057561      0.11202560412963
  C   -4.97905703408997     -0.72700410071024      0.14479137467979
  C   -6.14411915784989      0.04493038808078      0.18946116897996
  C   -6.03728028042760      1.45914025405202      0.19065195492725
  C   -4.78664340661945      2.04098831042041      0.14875114158626
  C   -3.58253036148092      1.29719333059998      0.10744950046926
  C   -2.32053805580618      2.03177761434017      0.06817381734337
  N   -1.15403611648984      1.32663631541543      0.03234022821474
  C   0.00079247658811      1.99002715128127     -0.00388906145520
  N   1.15510632451605      1.32567978918858     -0.03930090733178
  C   2.32214708609813      2.02986970274227     -0.07584544566859
  C   3.58355207124178      1.29418205562899     -0.11376826101378
  C   4.78832362293709      2.03689994488468     -0.15545269747498
  C   6.03846857775590      1.45387197590940     -0.19593247718828
  C   6.14399651108039      0.03955859913662     -0.19264141068149
  C   4.97825290383672     -0.73133366452712     -0.14760114154418
  C   3.68896463217537     -0.14639143981736     -0.11644070410205
  N   2.58503231810706     -0.94022841213605     -0.07461647228273
  C   2.61367529502831     -2.38139056635680     -0.06849629247558
  H   3.11120170607607     -2.79730571602264     -0.96495548081617
  H   3.13274966890481     -2.79260071672805      0.81877863812770
  H   1.57901883357700     -2.75302083484201     -0.05468104376475
  H   1.69755473735017     -0.43395635487497     -0.03821714031736
  H   5.06780658521910     -1.81510801757319     -0.12765398914518
  N   7.40957396008903     -0.57791111269466     -0.24494055837935
  C   8.54663806019124      0.03730810244005      0.35858466738983
  C   9.77295217555082      0.08582505011752     -0.32295595128994
  C   10.89208317145780      0.66533217768692      0.27696162300855
  C   10.82718613656361      1.22901608993366      1.56051202943849
  C   9.59469733414214      1.17539637166749      2.23151777211206
  C   8.47266774017444      0.58362256736377      1.65103066344567
  H   7.52975858860370      0.54146128400481      2.19923636527284
  H   9.51237271576733      1.59253653830070      3.23945087316557
  C   12.02963039945593      1.89129842641691      2.18999035946887
  H   12.05693942080200      1.72766710208466      3.27928524573992
  H   12.97074124160797      1.50940826711432      1.76473971901374
  H   12.01585786317737      2.98413603675541      2.02689189150865
  H   11.83704749543528      0.68789042183661     -0.27344351701879
  H   9.84709694792976     -0.33908251639796     -1.32579238392121
  C   7.57317368108013     -1.86362831808262     -0.84409878837484
  C   7.08214832703479     -2.12008235237719     -2.13641800196001
  C   7.25433058029932     -3.37428902753621     -2.71921135714063
  C   7.93285129239195     -4.40848715460841     -2.05062977702955
  C   8.42567655102627     -4.13719827371959     -0.76662149047834
  C   8.24577860245502     -2.88913980756596     -0.16416618903365
  H   8.63210763999761     -2.70446519875627      0.84002147446078
  H   8.95383909652135     -4.92125314833328     -0.21659692525425
  C   8.13140166295821     -5.75453409266800     -2.70602635801016
  H   8.56009955731854     -6.48573333245854     -2.00405354831937
  H   7.17915282122893     -6.16478042404664     -3.08220269384258
  H   8.81426187182820     -5.68317694249986     -3.57092875350300
  H   6.86371903904509     -3.55001678032283     -3.72598017355223
  H   6.56171374013964     -1.32830963637143     -2.67848530468051
  H   6.93444710430374      2.07123001944961     -0.24883781981516
  H   4.69533355187924      3.12225149205717     -0.16983123450705
  N   2.38590399691965      3.37247742255173     -0.07828192416308
  C   1.24133842245143      4.06412452255670     -0.04402485048034
  N   0.00134933875946      3.39624837126437     -0.00474691241369
  C   -1.23811896294564      4.06514222647728      0.03370600071406
  N   -2.38321836795399      3.37444485587735      0.06894295935173
  C   -1.21271605985058      5.47039852970352      0.03227821115327
  C   0.00242398054480      6.14880370916050     -0.00652375559529
  C   1.21703912608732      5.46939407645441     -0.04443013156647
  H   2.17780845134156      5.97999925693756     -0.07485628299413
  H   0.00285197031003      7.24184744120911     -0.00723538330055
  H   -2.17308545052827      5.98179315822984      0.06206518046781
  H   -4.69272776697131      3.12628005196683      0.16163797190184
  H   -6.93263022428067      2.07743995228440      0.24292675536389
  N   -7.41023749647433     -0.57143104593481      0.24348341469619
  C   -8.54767434188396      0.04442941098922     -0.35875837939326
  C   -9.77262679230285      0.09663031840674      0.32756532998925
  C   -10.89153924330673      0.67709478660763     -0.26865786524573
  C   -10.82979460324634      1.23894742061263     -1.55469819448368
  C   -9.60073189917812      1.18258507463786     -2.22878558153448
  C   -8.47685155415497      0.58853150427964     -1.65090232272721
  H   -7.53587177285467      0.54481935090673     -2.20226546319069
  H   -9.52086643143158      1.59928048760450     -3.23691999494341
  C   -12.03912517377444      1.89703789931215     -2.17533526424908
  H   -12.95763030968553      1.31903061173574     -1.98287172946056
  H   -12.20126300534342      2.90857579441828     -1.76154296522861
  H   -11.92634234622049      2.00268283676581     -3.26531302449971
  H   -11.83445978512804      0.70307704547073      0.28542691109638
  H   -9.84340340772267     -0.32607598049828      1.33159861615899
  C   -7.57474721059652     -1.85571694708997      0.84528753260700
  C   -8.25567977758005     -2.87984090031057      0.16974138062176
  C   -8.43990714421211     -4.12480905186142      0.77508958127798
  C   -7.94130724207225     -4.39698657595571      2.05781707083861
  C   -7.25982728043010     -3.36393087265872      2.72312732584922
  C   -7.08312287160962     -2.11102204310870      2.13668521753321
  H   -6.56290063241307     -1.31883766536328      2.67832297179851
  H   -6.87247866932499     -3.53749625236854      3.73140723752112
  C   -8.10922795392996     -5.75635673735618      2.69405379878665
  H   -8.98295251378076     -6.28845017330450      2.28678407253031
  H   -7.22483263191997     -6.39439014174729      2.51522143976242
  H   -8.23616760573006     -5.67857527509105      3.78571098517724
  H   -8.97842794579061     -4.90546640078851      0.23012213689058
  H   -8.64903348836003     -2.69347089602113     -0.83141211907522
  H   -5.06953446174856     -1.81072292523851      0.12657843394481
  H   -1.69815203821623     -0.43281901202362      0.03322655099648
  H   -3.11318444018512     -2.79326542278724      0.96448467947389
  H   -1.58179022906048     -2.75196333433882      0.05272531966454
  H   -3.13632448321769     -2.79157683514510     -0.81927062013034
