92
Coordinates from ORCA-job ./opt_b3lyp_cdz
  C   2.61484373595974      2.40557039129560     -0.09865799695493
  N   2.58617771646070      0.96408072660097     -0.08551678169474
  C   3.68925728448414      0.16955013104806     -0.11309736842534
  C   4.97971696618894      0.75341462601522     -0.14424917470145
  C   6.14390443409781     -0.01958037442162     -0.17333547644236
  C   6.03915565923404     -1.43284130965985     -0.16034862506581
  C   4.78771077552900     -2.01481462346617     -0.12124823903125
  C   3.58419864463969     -1.27084452518140     -0.09570831869602
  C   2.32134310141148     -2.00663112658362     -0.06055808925178
  N   1.15494251026971     -1.30145372198821     -0.03133753822638
  C   0.00022853373957     -1.96556103921439     -0.00012709230701
  N   -1.15465523360249     -1.30176955642650      0.03147317297914
  C   -2.32086942058175     -2.00726982442644      0.06031752811059
  C   -3.58390341009417     -1.27180094199618      0.09574549545734
  C   -4.78724284376324     -2.01606551623787      0.12084346233083
  C   -6.03882820295442     -1.43440633647180      0.16012172583082
  C   -6.14391147835245     -0.02117634153084      0.17374967367061
  C   -4.97990246295401      0.75210500831773      0.14510979966856
  C   -3.68930211702634      0.16856150969431      0.11379877718959
  N   -2.58640633036543      0.96337063162626      0.08669316063901
  C   -2.61540679163391      2.40485625681081      0.10023040925039
  H   -3.11396396328569      2.80834260070353      1.00172015556077
  H   -1.58096639624265      2.77688404389411      0.09310307259821
  H   -3.13276871579973      2.82749740428000     -0.78245937144540
  H   -1.69838866978770      0.45798068493570      0.04877357859246
  H   -5.07037176245734      1.83607096177095      0.13717914352807
  N   -7.41220465081267      0.59536032792150      0.22561586612487
  C   -7.58401812033584      1.86478108407897      0.85441905395440
  C   -8.24516111909517      2.90825998703575      0.18539584705799
  C   -8.43914333449331      4.14324332838882      0.80775912407363
  C   -7.95101376121245      4.33371380496086      2.09707276771342
  F   -8.12820855652276      5.53006300506861      2.70042144553225
  C   -7.28552344774874      3.31963764908878      2.78215523186091
  C   -7.11272404710790      2.08218970526441      2.16115247292358
  H   -6.60448483482806      1.27383176381076      2.68927627737326
  H   -6.92522016095576      3.50194854172012      3.79607585755307
  H   -8.95298324709216      4.96122149895369      0.29998597810923
  H   -8.61425363743873      2.74765012741565     -0.82895740886244
  C   -8.54038202914560     -0.00608391331935     -0.40640295484395
  C   -9.77060073553642     -0.08576828758911      0.26859931631321
  C   -10.88678800917213     -0.65067470415216     -0.35020575134281
  C   -10.76137134614538     -1.15339651040556     -1.64245726035666
  F   -11.83776370185080     -1.70931379418833     -2.24174431734428
  C   -9.55359582836495     -1.09521148725213     -2.33261983833890
  C   -8.44678460449708     -0.51024229467677     -1.71542936345459
  H   -7.49749809734788     -0.44645995110619     -2.24954370565539
  H   -9.49359953405569     -1.49265198676135     -3.34722417970100
  H   -11.84766756251249     -0.71782479526368      0.16276651613066
  H   -9.85170284751632      0.30097005317306      1.28583292176875
  H   -6.93444993632902     -2.05343935130665      0.20031885945272
  H   -4.69323163321334     -3.10139733616226      0.12337448303383
  N   -2.38450649743685     -3.34886139668805      0.05784236574735
  C   -1.23899487849105     -4.04042082291032      0.02954614181584
  N   0.00040974351400     -3.37153069864412     -0.00052165786322
  C   1.23998734008306     -4.04008181208707     -0.03096887165859
  N   2.38531933622311     -3.34820930122354     -0.05887430288568
  C   1.21567076233298     -5.44495582483362     -0.03054608261356
  C   0.00076689053913     -6.12434799673716     -0.00129936533313
  C   -1.21431347283827     -5.44528793484645      0.02832820055021
  H   -2.17513417761028     -5.95616951504901      0.05157272239983
  H   0.00090871160021     -7.21730671758174     -0.00161029335811
  H   2.17662398518429     -5.95557466271551     -0.05408386031702
  H   4.69395448890412     -3.10016709050057     -0.12427438091595
  H   6.93492123207084     -2.05164328709129     -0.20089672814783
  N   7.41204911831853      0.59727866443106     -0.22502278628312
  C   8.54041423050712     -0.00418151063427      0.40664445920634
  C   8.44703126702014     -0.50895019440813      1.71545086649654
  C   9.55402661312445     -1.09393133805815      2.33229949809915
  C   10.76176672644516     -1.15151834783802      1.64202569866704
  F   11.83833397231767     -1.70744770416199      2.24098678297148
  C   10.88697105937131     -0.64818624557647      0.34999126644663
  C   9.77060458042487     -0.08326875051269     -0.26848062302858
  H   9.85154167145521      0.30394632134205     -1.28554599241236
  H   11.84782991106724     -0.71487629966723     -0.16307988110362
  H   9.49419751155633     -1.49184031259127      3.34672982902378
  H   7.49776881058030     -0.44563663311258      2.24966372398028
  C   7.58351950383036      1.86700934162155     -0.85329181717426
  C   7.11205566610331      2.08487985135179     -2.15988728781960
  C   7.28452074953015      3.32263541791593     -2.78036905907982
  C   7.94984933598218      4.33656324815597     -2.09490932812481
  F   8.12672366098367      5.53321337464124     -2.69775784735460
  C   8.43814022757446      4.14564282250420     -0.80572315873244
  C   8.24449194976173      2.91034638060740     -0.18387803135655
  H   8.61371346997649      2.74938041924191      0.83037185874613
  H   8.95184385988171      4.96351542195216     -0.29764238771153
  H   6.92408333764897      3.50530480546736     -3.79417741180326
  H   6.60394957596291      1.27663791855282     -2.68831629607041
  H   5.06993390911578      1.83739804673265     -0.13582696960506
  H   1.69827763681851      0.45846393308717     -0.04781451387858
  H   1.58032187652976      2.77736694864290     -0.09127814363377
  H   3.11317625233348      2.80936228113639     -1.00013284073151
  H   3.13224890951275      2.82811128320465      0.78405294210337
