95
Coordinates from ORCA-job ./opt_b3lyp_cdz
  C   2.62209110766192      3.16864758073655     -0.05941758728839
  N   2.59051836871036      1.72682370073038     -0.05561503903797
  C   3.69202690377589      0.93064674318672     -0.08787417117390
  C   4.98295210943751      1.51236647658186     -0.11190597835372
  C   6.14646020187883      0.73836040301755     -0.14402557701704
  C   6.03867280784483     -0.67621752060862     -0.14160405145246
  C   4.78801477677194     -1.25684885832665     -0.11044037854622
  C   3.58384590870727     -0.51051876065241     -0.08202044654385
  C   2.32268546961315     -1.24181833194209     -0.05616882211391
  N   1.15550454595719     -0.53832898659951     -0.02720780633873
  C   0.00055088524287     -1.20145748608209     -0.00521898082739
  N   -1.15497214172727     -0.53924202364942      0.02292868286846
  C   -2.32171687871478     -1.24350096444159      0.03996242498500
  N   -2.38266831228652     -2.58928183656901      0.02973816673043
  C   -1.23895932274065     -3.27571405613936      0.00641931936691
  C   -1.21597771306295     -4.68210467617217     -0.00381720182945
  C   0.00144550684262     -5.35686665025166     -0.02479426420648
  C   1.21863687501245     -4.68100273079602     -0.05063732976617
  C   1.24113638001560     -3.27498685644503     -0.04152683445773
  N   2.38440179746166     -2.58736338932625     -0.06229828085810
  N   0.00088052634377     -2.60800131158775     -0.01205479803031
  H   2.17503216677017     -5.19710336996480     -0.08028457653860
  C   0.00519015820704     -6.86898142324039      0.02764369652466
  F   0.06334193035898     -7.30890292752752      1.30535280809138
  F   -1.10799624560522     -7.39856186794826     -0.52249981828449
  F   1.06711399518433     -7.39470018756896     -0.61949133463445
  H   -2.17240381547672     -5.19876329627339      0.00391789886556
  C   -3.58340779008667     -0.51344925165587      0.07035036123491
  C   -4.78722907397895     -1.26077607675262      0.08508388511110
  C   -6.03833348167258     -0.68126093096099      0.11807222486118
  C   -6.14703038228438      0.73315476461521      0.13684611923195
  C   -4.98387728743147      1.50816164220663      0.11888449777527
  C   -3.69251429951921      0.92749011999092      0.09326515735393
  N   -2.59133267202489      1.72453667269315      0.07551507674657
  C   -2.62373855846381      3.16621105594670      0.09607467657676
  H   -1.59004291743932      3.54033791446767      0.09787005608577
  H   -3.13618378714669      3.59140720488358     -0.78807044156385
  H   -3.12984922502959      3.56331704737215      0.99596338134944
  H   -1.70166677067638      1.22261831986329      0.04217669525557
  H   -5.07671563959966      2.59184704202033      0.11577314419572
  N   -7.41513838035794      1.34582417572677      0.18411189270959
  C   -8.54036234750558      0.74254325849674     -0.45326751264745
  C   -8.43551018205929      0.22590776860714     -1.75623527001662
  C   -9.54465439967255     -0.35887027113027     -2.37101343751706
  C   -10.77456429728186     -0.42016268077691     -1.70747965425736
  C   -10.88360595285316      0.10417783664544     -0.41509496261230
  C   -9.77556564074611      0.67532057655624      0.21362230501221
  H   -9.86040057255762      1.07398820972998      1.22622707523256
  H   -11.83742655514823      0.05825233567858      0.11627235818492
  H   -11.64163719496110     -0.87231031337566     -2.19409776776590
  H   -9.44776391045228     -0.75796781008697     -3.38371937496973
  H   -7.48049765844922      0.28408850723878     -2.28132591141079
  C   -7.59292855955092      2.61321846589520      0.81761907882964
  C   -8.26677186230898      3.65062225219827      0.15229725627469
  C   -8.46151069048446      4.88137774103145      0.78394438834045
  C   -7.97640977260880      5.09920915528264      2.07727663203725
  C   -7.30024060688438      4.06835760127971      2.73990982988920
  C   -7.11504976412804      2.83053044551924      2.12165332913815
  H   -6.59864563671757      2.02299541824722      2.64372149659339
  H   -6.92537328430343      4.22283298493949      3.75479440927882
  H   -8.12631803093361      6.06392969375202      2.56718330314573
  H   -8.98852347966796      5.67901479475459      0.25451329688635
  H   -8.63976260628798      3.48451625827802     -0.86003873979946
  H   -6.93345096214593     -1.30129672977491      0.14975234180768
  H   -4.69246502504801     -2.34594377551208      0.08479690381226
  H   4.69384868997387     -2.34200188101662     -0.12272249039409
  H   6.93401122107820     -1.29527791720356     -0.18426473924924
  N   7.41401024611768      1.35241924790723     -0.18941837829227
  C   7.58838722402385      2.62704441937280     -0.80917199110043
  C   8.26486556878412      3.65706719880468     -0.13509028317897
  C   8.45625234236264      4.89506647352232     -0.75345360467758
  C   7.96516389496399      5.12752836381046     -2.04196849927035
  C   7.28635512227428      4.10404725962857     -2.71327172631252
  C   7.10446711623435      2.85912583329100     -2.10843210119840
  H   6.58598792686630      2.05743046033852     -2.63739459258498
  H   6.90679116227981      4.26999064772603     -3.72459656619981
  H   8.11246352239078      6.09786889158023     -2.52145683978286
  H   8.98537136281634      5.68680120130204     -0.21730511952252
  H   8.64252251969205      3.47954929543039      0.87357199110790
  C   8.54227088029875      0.74249809304869      0.43612897414805
  C   9.77480083200051      0.68422631481993     -0.23654965779074
  C   10.88586313285250      0.10658605656423      0.38078909517618
  C   10.78254399534216     -0.43318401569663      1.66727589681633
  C   9.55530232939222     -0.38083337263631      2.33649049482345
  C   8.44317668799555      0.21028181319275      1.73326144279905
  H   7.49029996951443      0.26133055552607      2.26295943297369
  H   9.46285990974448     -0.79203159181462      3.34476207663822
  H   11.65196017800248     -0.89034780162906      2.14494291554495
  H   11.83752967149717      0.06778822874217     -0.15499255053852
  H   9.85516673709105      1.09499543601194     -1.24466965954731
  H   5.07520657622221      2.59599521523600     -0.09630950798628
  H   1.70121395715237      1.22403830227823     -0.02616292687847
  H   3.12290557241073      3.57679390935427     -0.95736706168884
  H   3.13929372041986      3.58357061087558      0.82680628984611
  H   1.58821254127467      3.54218201763490     -0.05084482218016
