100
Coordinates from ORCA-job ./opt_b3lyp_cdz
  C   2.59706265115489     -3.03630789325050     -0.24280069569750
  N   2.57432251044406     -1.59616727183455     -0.17954060932073
  C   3.68221265001702     -0.80803896210572     -0.13456048263257
  C   4.96985086741096     -1.39854637813539     -0.14116181210795
  C   6.13836822587931     -0.63324623514695     -0.09786530634016
  C   6.04075668786697      0.77874888878897     -0.03097497567748
  C   4.79175276765373      1.36739926321259     -0.01844879735020
  C   3.58424211373160      0.63123134072443     -0.07097239254130
  C   2.32424532699850      1.37353548505745     -0.06417411855473
  N   1.15363272277850      0.67352705791202     -0.03159959761042
  C   0.00001340684949      1.33780099274823     -0.00042487257369
  N   -1.15359342689042      0.67351221622486      0.03090964267168
  C   -2.32422079210146      1.37350213300597      0.06336397466222
  C   -3.58420738369994      0.63118228252909      0.07046886356850
  C   -4.79172854467628      1.36733511903998      0.01790347415376
  C   -6.04073646363093      0.77869790495162      0.03075312930625
  C   -6.13833975295389     -0.63328057822618      0.09801192300164
  C   -4.96982039126685     -1.39857481347010      0.14133457727720
  C   -3.68218066874719     -0.80807475054633      0.13444487234319
  N   -2.57429901129389     -1.59620775687431      0.17956057011949
  C   -2.59705938611400     -3.03632983235924      0.24320351467314
  H   -1.56165883659285     -3.40162090345544      0.30013008012962
  H   -3.13620097462617     -3.40885175121835      1.13425973945109
  H   -3.07032675185551     -3.49538291174048     -0.64649459705222
  H   -1.68845993748308     -1.08891913083354      0.12388578746989
  H   -5.05507903617706     -2.48261219633824      0.17162117634679
  N   -7.40441850517700     -1.25775651127981      0.12701089817073
  C   -8.50331601728672     -0.70476256472583     -0.59380604082998
  C   -9.77248984907962     -0.62519658777489      0.00527440358456
  C   -10.85419692650162     -0.10159309424891     -0.70529248405887
  C   -10.68629544396806      0.36388924167889     -2.01380772784745
  C   -9.42291190763230      0.29120463048144     -2.60995006530633
  C   -8.33918095632935     -0.24685824397097     -1.91289129995607
  H   -7.35780288005422     -0.31394693711493     -2.38556839472419
  H   -9.27901556261283      0.64440267308294     -3.63415764651225
  H   -11.53317245198742      0.77919671986509     -2.56461916775911
  H   -11.83452581946407     -0.04606576991018     -0.22546254031418
  H   -9.90441551529236     -0.97718586006152      1.03005589635451
  C   -7.59623070783195     -2.48490244876747      0.82939152073924
  C   -8.24896796007751     -3.56394024414709      0.21003981113139
  C   -8.45571155043159     -4.75605528293006      0.90829560563003
  C   -8.00321490458410     -4.89532974013897      2.22411568998120
  C   -7.34757253062090     -3.82374372365002      2.84109792596434
  C   -7.15104348908815     -2.62358541026392      2.15586321315816
  H   -6.65023639813060     -1.78465752768347      2.64231543332365
  H   -6.99754058034018     -3.91619402628066      3.87230374689914
  H   -8.16198074830960     -5.83035632522686      2.76604111973428
  H   -8.96584372285682     -5.58618722062170      0.41331129178944
  H   -8.59590817607535     -3.46050856850202     -0.81971803866247
  H   -6.94121528157188      1.39140172183447      0.00506580397308
  H   -4.70519283780916      2.45238537041070     -0.02886407272922
  N   -2.39061791544694      2.71228841870492      0.08832541129911
  C   -1.24299266952813      3.40438770461607      0.05701052998284
  N   0.00000134716962      2.74905987040152     -0.00058896380183
  C   1.24298056735154      3.40440058945563     -0.05833984199715
  N   2.39061935297557      2.71231635959744     -0.08945354099404
  C   1.21822716743694      4.81754557128209     -0.07496123793821
  C   -0.00002980754370      5.48931258161364     -0.00094222210743
  C   -1.21826824310373      4.81753812034781      0.07326246917997
  O   -2.38512609070332      5.53401591897151      0.08189431762414
  C   -3.11309512343316      5.51106058959409      1.31606093171323
  H   -4.00488258027446      6.13285614926351      1.15411607779545
  H   -2.51048935466002      5.94404222358268      2.13554014496029
  H   -3.41921470269911      4.48622254383078      1.57824559318883
  H   -0.00003473168346      6.58091502819241     -0.00108412409858
  O   2.38505723620805      5.53406057880393     -0.08377442215909
  C   3.11308617158748      5.51074471698501     -1.31789965268725
  H   2.51050721722517      5.94346295638375     -2.13753746621183
  H   3.41924801649565      4.48583500108130     -1.57975352112670
  H   4.00484425991718      6.13261934907407     -1.15609601255514
  H   4.70520936625698      2.45246059360716      0.02803875875029
  H   6.94123277063008      1.39145812628530     -0.00530289534918
  N   7.40445991444745     -1.25772834962306     -0.12646241008657
  C   7.59644615527921     -2.48502527137809     -0.82851924222896
  C   7.15148410588749     -2.62403969244577     -2.15503284686962
  C   7.34819649659772     -3.82434124010173     -2.83996212835833
  C   8.00380222483266     -4.89574958002795     -2.22263268957510
  C   8.45607807662915     -4.75614649767186     -0.90677206972982
  C   8.24915248556140     -3.56388521111688     -0.20882024211311
  H   8.59592190511195     -3.46020091158980      0.82096950926487
  H   8.96618114087213     -5.58613420108121     -0.41151548860688
  H   8.16271144028404     -5.83088921367615     -2.76432051727938
  H   6.99833955900626     -3.91704534972472     -3.87120455235986
  H   6.65071445060790     -1.78525171871302     -2.64176327564998
  C   8.50316162335542     -0.70460996125289      0.59456448610304
  C   8.33869245663123     -0.24656209641123      1.91353931694749
  C   9.42225241873108      0.29158545069748      2.61077759579744
  C   10.68578542882254      0.36423750847079      2.01497332796355
  C   10.85402038323335     -0.10138118004358      0.70656566551069
  C   9.77248562304998     -0.62507740887442     -0.00418543322453
  H   9.90466564859059     -0.97718682221250     -1.02889294807533
  H   11.83446490553768     -0.04589308370459      0.22696639214453
  H   11.53251160300094      0.77961982140398      2.56596011102074
  H   9.27810422057703      0.64487091952926      3.63485853982059
  H   7.35720267059119     -0.31361266722481      2.38598941462757
  H   5.05511233820916     -2.48259149757100     -0.17114291308197
  H   1.68848805702244     -1.08885137304084     -0.12405517847558
  H   1.56165652223369     -3.40159480397559     -0.29964861531657
  H   3.07030353516612     -3.49512603678992      0.64703123898416
  H   3.13621775272963     -3.40907599224560     -1.13374581403640
