108
Coordinates from ORCA-job ./opt_b3lyp_cdz
  C   -2.57572308959975      3.25231100775538      0.08674726856484
  N   -2.55972918113246      1.81075589964076      0.07266712038028
  C   -3.67033993070423      1.02599046255120      0.09310814545565
  C   -4.95503223737270      1.62290164017603      0.11519782377388
  C   -6.12741270346191      0.86303917770331      0.13807597661263
  C   -6.03700700055738     -0.55095833369067      0.12666285341667
  C   -4.79142380139267     -1.14584309746224      0.09538091592477
  C   -3.57913214393465     -0.41571551930660      0.07697894291551
  C   -2.32147049479010     -1.16211575190984      0.04949714206732
  N   -1.15170183306041     -0.46506788429044      0.02604141353698
  C   -0.00018853504557     -1.13423889326911      0.00062206962744
  N   1.15156032541320     -0.46548816272986     -0.02521597589013
  C   2.32108775328994     -1.16295885117876     -0.04819550586857
  N   2.38816213492793     -2.50342610418588     -0.04609996808918
  C   1.24582491639379     -3.20471002641061     -0.02350931498644
  C   1.23223134708762     -4.62101858757954     -0.02288904283775
  N   2.42774798761122     -5.40492149770311     -0.04714926301561
  C   3.25147708219553     -5.32446080634443      1.15737256963287
  H   2.61931746478305     -5.48086672958817      2.04553886053157
  H   4.00072246704894     -6.13421965603836      1.13092890446484
  H   3.78466567456825     -4.35966585432558      1.27326949218742
  C   3.20002904480233     -5.32662368815157     -1.28546513103130
  H   2.53108918250727     -5.48505141220454     -2.14588637548158
  H   3.95002981227642     -6.13609306690709     -1.28899609998654
  H   3.72751044257139     -4.36191236098055     -1.42568399365719
  C   -0.00091477238150     -5.27460992425980      0.00189587480849
  C   -1.23383212119195     -4.62057187696534      0.02629025620559
  N   -2.42962279204081     -5.40404262425495      0.05102453925157
  C   -3.20188406592073     -5.32472354686221      1.28928735565246
  H   -3.95215751843017     -6.13393785822230      1.29331021316840
  H   -3.72904110137249     -4.35974871106129      1.42890918766385
  H   -2.53300336388258     -5.48284728268834      2.14981033657658
  C   -3.25331969933338     -5.32402274718703     -1.15354924588287
  H   -3.78616455002154     -4.35910853981916     -1.27003300335456
  H   -2.62121348647303     -5.48119414272707     -2.04161832591352
  H   -4.00285351982933     -6.13349840439585     -1.12661480781587
  C   -1.24692935277080     -3.20425842014945      0.02605698521438
  N   -2.38902021196285     -2.50256000434675      0.04823994948324
  N   -0.00043617275032     -2.54267855207466      0.00106809878877
  H   -0.00110629292311     -6.36621526496499      0.00222443708208
  C   3.57902934523029     -0.41703846913803     -0.07604340563612
  C   4.79103888731904     -1.14765234889824     -0.09372584910619
  C   6.03686167312983     -0.55328163874295     -0.12519388846723
  C   6.12782922103300      0.86067103044769     -0.13756429734172
  C   4.95574523913326      1.62101153650999     -0.11544246141897
  C   3.67081076543982      1.02462641028824     -0.09318876585948
  N   2.56052127338025      1.80986549878276     -0.07357196858424
  C   2.57712844024222      3.25140555442513     -0.08850771700818
  H   3.08035502013155      3.65834769328750     -0.98582126761684
  H   3.08288337475972      3.67990524329206      0.79817010734796
  H   1.53923853885381      3.61412274760949     -0.09107990163279
  H   1.67696810248454      1.29626523573855     -0.04114738577085
  H   5.03583618745608      2.70583379233643     -0.10797999559354
  N   7.39017507277814      1.49116090174709     -0.18199303200556
  C   8.51327300539773      0.91373029722419      0.47999016275465
  C   8.39327998732777      0.40363427672444      1.78454769212412
  C   9.50033237720207     -0.15795267009320      2.42404704317406
  C   10.74364404029212     -0.20296530363240      1.78456623156833
  C   10.86771208814709      0.31430506093088      0.49068220047795
  C   9.76230159455137      0.86208679139777     -0.16286382877940
  H   9.85990009828145      1.25464759994735     -1.17668958114143
  H   11.83189459672530      0.28086069093798     -0.02271589287887
  H   11.60893539737472     -0.63685501382684      2.29061420623700
  H   9.39089408690116     -0.55153846387423      3.43768902160810
  H   7.42776687821202      0.44893243195196      2.29129623892524
  C   7.55620467462407      2.74613033326027     -0.84051815697913
  C   7.06988972442076      2.93526509760630     -2.14610670835888
  C   7.24174492485681      4.16240089096699     -2.78888668607596
  C   7.91301417769527      5.21142205651361     -2.15026660954270
  C   8.40625483698718      5.02209590322154     -0.85550465188881
  C   8.22460026750372      3.80242040523093     -0.19911448074427
  H   8.60350087716362      3.65972378056952      0.81457491474483
  H   8.92904007661835      5.83406293456560     -0.34387590921551
  H   8.05233805599946      6.16777503795425     -2.65932624450530
  H   6.85989917166552      4.29412628238161     -3.80441207611318
  H   6.55691921159376      2.11412667191759     -2.64994375182431
  H   6.93952178420121     -1.16239609338789     -0.15877399175692
  H   4.71264603040104     -2.23385741140158     -0.09724858562623
  H   -4.71345570599516     -2.23207510347197      0.09965730071431
  H   -6.93990164771020     -1.15969219144947      0.16083932008391
  N   -7.38949757969213      1.49406388425368      0.18233721029468
  C   -7.55488841897878      2.74953468611773      0.84006704953160
  C   -7.06820206060082      2.93934911713184      2.14541843145405
  C   -7.23943069065795      4.16698008153743      2.78741946729291
  C   -7.91043627158127      5.21583804856627      2.14825399166820
  C   -8.40404495178854      5.02584263772148      0.85373034786774
  C   -8.22301584797922      3.80565962106296      0.19811157898844
  H   -8.60220121848516      3.66243685310429     -0.81539721439206
  H   -8.92662860962244      5.83767270068566      0.34167955784239
  H   -8.04926979206794      6.17258466023804      2.65670819215668
  H   -6.85730204926518      4.29923274181840      3.80276996071095
  H   -6.55543862332595      2.11834606786580      2.64968669748846
  C   -8.51297475130470      0.91661845926431     -0.47898662934783
  C   -9.76188266591786      0.86593784413275      0.16418004731042
  C   -10.86766006560594      0.31813993881985     -0.48873063260744
  C   -10.74408886852739     -0.20010198336393     -1.78227338501108
  C   -9.50090018503560     -0.15605073520242     -2.42205961237828
  C   -8.39347776181521      0.40554249893806     -1.78320614873612
  H   -7.42805948218911      0.45008194597714     -2.29020299103121
  H   -9.39184521208167     -0.55040457901180     -3.43544484528765
  H   -11.60966828901812     -0.63400068914825     -2.28782122877358
  H   -11.83174181421836      0.28545136452894      0.02490554235512
  H   -9.85909631270605      1.25925857727748      1.17774814594788
  H   -5.03469729140018      2.70774987469721      0.10700590673661
  H   -1.67639284127601      1.29676164900330      0.04064159115004
  H   -3.07846009199561      3.66002238201814      0.98398986438522
  H   -3.08160917557794      3.68047427349860     -0.80001389512336
  H   -1.53767894112986      3.61458997735873      0.08871719025803
