96
Coordinates from ORCA-job ./opt_b3lyp_cdz
  C   6.31486199717038      3.01367295179425     -0.34204512565549
  N   5.03434546561640      2.34774996045819     -0.26689227520596
  C   4.86393874812926      1.01571733219110     -0.10517015408708
  C   5.99754445411764      0.16813875174828     -0.01097089700195
  C   5.88529598067275     -1.21416829176698      0.14981338235374
  C   4.59079936514764     -1.80652180477950      0.21572083022235
  C   3.47893121086372     -1.00441101978432      0.12206941137178
  C   3.54702786850835      0.40698037174006     -0.04044155493846
  C   2.30573376533778      1.13738719539999     -0.12295341018104
  N   1.14693111043352      0.45609733028402     -0.05176218053398
  C   -0.00021678730820      1.11831123561963     -0.12376265588552
  N   -1.14709126079492      0.45556923672814     -0.05221108135010
  C   -2.30616723949091      1.13634300977964     -0.12387140328043
  C   -3.54721086019200      0.40547736573385     -0.04184694997780
  C   -3.47877484428439     -1.00586631124748      0.12092121604681
  C   -4.59046740256696     -1.80826862029774      0.21419399959438
  C   -5.88509887420091     -1.21628247799268      0.14758744259929
  C   -5.99765891208281      0.16596701058371     -0.01350627551392
  C   -4.86423769994967      1.01382984315818     -0.10732206307495
  N   -5.03484769467691      2.34579576714350     -0.26943776299327
  C   -6.31545564023926      3.01145247210225     -0.34536696123134
  H   -6.92259104307046      2.85367143573199      0.56499639408449
  H   -6.91432972495107      2.67106589923935     -1.21084796689547
  H   -6.12981207811368      4.08788018087460     -0.45594943206126
  H   -4.18786535089814      2.91220749398306     -0.34418202509196
  H   -6.98933761222385      0.60638082385851     -0.08095450354472
  N   -7.03008254608198     -2.02092218602298      0.26045259037125
  C   -8.25959059205151     -1.48549944574910      0.75907612678822
  C   -8.29500852138278     -0.82536560312945      1.99884121462289
  C   -9.49960574707749     -0.31582338797977      2.48694988188989
  C   -10.68304736372021     -0.47081438646764      1.75597306060730
  C   -10.65050504832577     -1.13679149847905      0.52691962473926
  C   -9.44636801956282     -1.63710813146035      0.02502215658611
  H   -9.41979261853415     -2.15148005711861     -0.93740938068726
  H   -11.56778324829571     -1.26136603105780     -0.05367050947156
  H   -11.62503253702985     -0.07688470581591      2.14402789595051
  H   -9.51505436568195      0.19453646207165      3.45306494645377
  H   -7.37332126248939     -0.71484061733238      2.57302372618246
  C   -7.02461066821089     -3.37608533922427     -0.19168553014430
  C   -7.57984890542975     -4.38572999105529      0.61197476605060
  C   -7.59778925989687     -5.70820273796041      0.16497693986213
  C   -7.05268596698333     -6.04395173138534     -1.07894671140362
  C   -6.49655641888129     -5.04036505531323     -1.87883765230732
  C   -6.48921737858803     -3.71232109772125     -1.44656598332535
  H   -6.06786063538347     -2.92857650160448     -2.07857080535114
  H   -6.07534839542702     -5.28852311288449     -2.85610992339293
  H   -7.06289791002722     -7.08045793329665     -1.42328117992401
  H   -8.03188275916704     -6.48388518891591      0.80052727846315
  H   -7.99679742567463     -4.12627778674559      1.58680947987527
  H   -4.48555397190027     -2.88208156548519      0.36235829203239
  H   -2.48320574573511     -1.44389706112835      0.18704801421193
  N   -2.36386994621597      2.49531219937119     -0.27144161623851
  C   -1.25616035696176      3.19030125468982     -0.34955406862186
  N   -0.00051260475698      2.54622147070499     -0.27959523707870
  C   1.25486652928787      3.19088406589038     -0.34902966889287
  N   2.36286710166605      2.49639331717282     -0.27049062488000
  C   1.21362604930466      4.61858727975673     -0.50258338790633
  N   2.41577937336949      5.44516688565642     -0.59410630110427
  O   2.25003792207806      6.65958079579496     -0.69394727529556
  O   3.52486252037147      4.91234202825707     -0.57152927241098
  C   -0.00109951223390      5.28083463452115     -0.57180171924762
  C   -1.21553588342346      4.61801788107650     -0.50306040869385
  N   -2.41806246464584      5.44401289013082     -0.59501666834825
  O   -3.52687848873257      4.91058000416686     -0.57358429892465
  O   -2.25289142031293      6.65856150105334     -0.69418145637943
  H   -0.00133073202263      6.36287805686836     -0.68525659338945
  H   2.48345396533201     -1.44273605524030      0.18765440645537
  H   4.48611335089422     -2.88038808011898      0.36365498420493
  N   7.03045307369722     -2.01850610069401      0.26308837550787
  C   8.25957031569645     -1.48282539031776      0.76239373049815
  C   8.29421239940941     -0.82293197904286      2.00230973917264
  C   9.49842919200099     -0.31313155129423      2.49108593796659
  C   10.68225942396442     -0.46762454865274      1.76063332912730
  C   10.65049093998013     -1.13336514443283      0.53143204431862
  C   9.44673769748339     -1.63393710576603      0.02886755691788
  H   9.42077074802488     -2.14812268205397     -0.93368061369960
  H   11.56807882334831     -1.25755228595079     -0.04875167583587
  H   11.62394561532419     -0.07349347218354      2.14920853054753
  H   9.51327309589393      0.19703911477187      3.45731049214856
  H   7.37222513135181     -0.71279506905452      2.57608536120042
  C   7.02559404780898     -3.37356478935807     -0.18936585289621
  C   7.58075076821707     -4.38323486365747      0.61431824698073
  C   7.59929144615972     -5.70559624956530      0.16701533156477
  C   7.05487765556496     -6.04120925132466     -1.07724689206078
  C   6.49883828492715     -5.03759567827309     -1.87716711120318
  C   6.49090350121584     -3.70965629905553     -1.44458380720430
  H   6.06962765803659     -2.92588446124659     -2.07660729190227
  H   6.07817368903801     -5.28564605512283     -2.85470101809279
  H   7.06555794177746     -7.07763101392482     -1.42182244513990
  H   8.03331015806278     -6.48130279510175      0.80258690582670
  H   7.99715966692197     -4.12388879036111      1.58941201091571
  H   6.98913577054129      0.60883795515805     -0.07784896888689
  H   4.18728717668432      2.91401331060760     -0.34188669787537
  H   6.12906200609279      4.09008679365326     -0.45248810468352
  H   6.92157942975388      2.85581422121945      0.56858432228931
  H   6.91423003733538      2.67358605664878     -1.20730280240948
