124
Coordinates from ORCA-job opt_b3lyp_cdz
  C   2.61540306986291     -2.09457810477156      0.09722062862720
  N   2.58599137203682     -0.65437845840908      0.09258528154843
  C   3.69042376864371      0.14020337949146      0.14027781751296
  C   4.97764289756355     -0.44360716928801      0.18831050257767
  C   6.14715622518915      0.32697660636589      0.23425515187331
  C   6.03528631183013      1.74373276912317      0.22556170318608
  C   4.78556405382340      2.32412263360078      0.17490903247588
  C   3.57985161562285      1.58121756171360      0.12904289094472
  C   2.32015624317187      2.31335681427579      0.08008832244961
  N   1.15283176030135      1.60854099244011      0.03793502993614
  C   -0.00202613594400      2.27090076342691     -0.00634924336391
  N   -1.15554426209156      1.60607606089361     -0.04896490552015
  C   -2.32429546224589      2.30839832539762     -0.09273961210429
  C   -3.58250798884293      1.57358243705949     -0.13995251540488
  C   -4.78972203632859      2.31392525902949     -0.18764427093620
  C   -6.03826805022585      1.73087818295909     -0.23683910743225
  C   -6.14726059201181      0.31388320679959     -0.24203474568725
  C   -4.97618958402252     -0.45421473545249     -0.19422820355269
  C   -3.69015681473095      0.13231928135282     -0.14766085374316
  N   -2.58411101068186     -0.65989764181598     -0.09806375034189
  C   -2.61059371451117     -2.10015867372845     -0.09912797759881
  H   -1.57564865542478     -2.47083110812455     -0.07174119304938
  H   -3.14258592876020     -2.51650248946507      0.77835007628282
  H   -3.09538763916286     -2.51380915062178     -1.00410380430117
  H   -1.69784925596274     -0.15162694011682     -0.05588663525894
  H   -5.06303456340950     -1.53807439070578     -0.18228262265661
  N   -7.40566062808481     -0.29987911493397     -0.30507856367491
  C   -8.57485981078964      0.35943339426065      0.18790534717440
  C   -9.73360488824943      0.44301024114396     -0.59713309863875
  C   -10.88860448840311      1.05874697554181     -0.12033296546108
  C   -10.93627136515515      1.62972453771017      1.17489735672517
  N   -12.09602105314403      2.22478941319520      1.66651154958568
  C   -13.19033898036760      2.49912529313868      0.75335671906251
  H   -12.91238364119813      3.19340233023588     -0.06675739725405
  H   -14.02250614913031      2.94639141331090      1.31374468648064
  H   -13.56633151734195      1.57048720920604      0.29200544607875
  C   -12.02597455940923      3.00247064353933      2.89014885016538
  H   -11.33806757247109      3.87039044751525      2.81779066911800
  H   -13.02853778595822      3.37889001618529      3.13453630248652
  H   -11.69229129907507      2.38136737848092      3.73829556243164
  C   -9.75453115934330      1.55735822266967      1.95184632633807
  C   -8.61083916310256      0.92188750490541      1.47236072457403
  H   -7.72143360321557      0.87314821693491      2.10387680798372
  H   -9.72305859780438      1.98835310292465      2.95167633994843
  H   -11.75863068367847      1.09950760951562     -0.77443334695746
  H   -9.72982047455954      0.01606411861977     -1.60219815473481
  C   -7.55652588960390     -1.63192299297682     -0.80456382861475
  C   -7.09781980766912     -1.98315553909132     -2.08287168102476
  C   -7.25337155544862     -3.27623483775621     -2.57716876750852
  C   -7.91052907994775     -4.27839551049358     -1.82140041985029
  N   -8.10908744171506     -5.56008236541636     -2.32959859286428
  C   -7.41775966696430     -5.95387742664287     -3.54351036066031
  H   -6.31245909622252     -5.91807905339675     -3.44847155427052
  H   -7.70611106982381     -6.98118182546328     -3.80439649933855
  H   -7.70120628629814     -5.30781567314563     -4.39121415454959
  C   -8.56035901271705     -6.61175826738358     -1.43703181491306
  H   -7.85424781518232     -6.81202738379147     -0.60437393775453
  H   -9.53900752906083     -6.36393447968383     -0.99287339650210
  H   -8.68662047699649     -7.54022656796019     -2.01024185538842
  C   -8.36708532587475     -3.91375622654529     -0.53167646241848
  C   -8.18956892861484     -2.62166480836546     -0.04021374109671
  H   -8.55358694966658     -2.37385819571769      0.95906330065029
  H   -8.86337443422547     -4.64431488632062      0.10588912070757
  H   -6.87010753120807     -3.49682118043011     -3.57261236638370
  H   -6.59851339273708     -1.23091142915253     -2.69699785241159
  H   -6.93315819658099      2.34923716464190     -0.29200534830669
  H   -4.69832984722506      3.39955996643874     -0.19753452511509
  N   -2.38769823044003      3.65310576531728     -0.09477571206124
  C   -1.24449945522741      4.34426982335291     -0.05425475914784
  N   -0.00345970804762      3.67770853379271     -0.00808195800260
  C   1.23618147649022      4.34689550246578      0.03642289239276
  N   2.38082026187550      3.65819578945517      0.07871504155575
  C   1.20932235452110      5.75292776301236      0.03370334952091
  C   -0.00625331154079      6.43005276826310     -0.01154005107554
  C   -1.22046015927331      5.75033954640885     -0.05507707707626
  H   -2.18148941823018      6.26015475540063     -0.09081498125911
  H   -0.00737017460066      7.52326104173184     -0.01291964339168
  H   2.16931619508865      6.26477379900400      0.06816107028976
  H   4.69197515973759      3.40959085083580      0.18213656659511
  H   6.92891638215351      2.36404276109968      0.27921854391518
  N   7.40679579744564     -0.28407490211775      0.29883331757053
  C   8.57469318936807      0.37642638179264     -0.19564378900690
  C   9.73321924816707      0.46418209905641      0.58926225364375
  C   10.88700759921028      1.08111924403736      0.11108279932080
  C   10.93360783946721      1.64914155943127     -1.18548345464389
  N   12.09218208638194      2.24540009449747     -1.67842859109742
  C   13.18585915648586      2.52416022445373     -0.76584576481839
  H   13.56369532194764      1.59740373381374     -0.30222646876150
  H   12.90642723619379      3.21984912007672      0.05256986777759
  H   14.01716623995464      2.97175601434828     -1.32724633981631
  C   12.02059699156351      3.02011613089513     -2.90385965392923
  H   11.68825548087620      2.39637015901124     -3.75059118475598
  H   11.33088480042477      3.88676849995143     -2.83353528162174
  H   13.02239254180285      3.39804820690569     -3.14905816876271
  C   9.75206919558491      1.57255494366319     -1.96233426223685
  C   8.60962702565277      0.93591288071615     -1.48142359394517
  H   7.72036913184559      0.88390281112709     -2.11288697178723
  H   9.71979566478208      2.00112508940896     -2.96317995768405
  H   11.75690908352168      1.12516577777241      0.76513645701141
  H   9.73023004521031      0.03959778049751      1.59532935795881
  C   7.56033695729446     -1.61461126734440      0.80151820229630
  C   8.19536595683387     -2.60490524956265      0.03953341224922
  C   8.37543565979351     -3.89546826952389      0.53406593469823
  C   7.91957584961034     -4.25795222174320      1.82464406778413
  N   8.12064117363280     -5.53804701773599      2.33586637312735
  C   7.43007524472508     -5.93031225881221      3.55070960983522
  H   7.71224803767328     -5.28167667140217      4.39686990573984
  H   6.32470675903076     -5.89691368091346      3.45558186641648
  H   7.72044797440114     -6.95642276534196      3.81404364311367
  C   8.57381655047792     -6.59096641978883      1.44572548707630
  H   7.86805728062304     -6.79442665869721      0.61354565435856
  H   8.70176087746967     -7.51787707285354      2.02107770963022
  H   9.55201153493729     -6.34240248069857      1.00098233577558
  C   7.26043583988260     -3.25529908354675      2.57802867594269
  C   7.10232221600520     -1.96370986137355      2.08065695922280
  H   6.60151667593401     -1.21100270566925      2.69299162534144
  H   6.87760014936339     -3.47427333679598      3.57399310932626
  H   8.87319077391220     -4.62655083895930     -0.10175323843341
  H   8.55890346893234     -2.35875529368622     -0.96032762857854
  H   5.06666799184866     -1.52731434275894      0.17902296484493
  H   1.69868767859041     -0.14804283490370      0.04915272324811
  H   3.14823944464100     -2.51200767990476     -0.77922973372747
  H   3.10105006633453     -2.50500130047144      1.00320635879018
  H   1.58122002557517     -2.46743561833374      0.07076275282708
