104
Coordinates from ORCA-job ./opt_b3lyp_cdz
  C   2.61778500288168     -2.03520790783859     -0.15058207058691
  N   2.58544649052882     -0.59271696599716     -0.14219382516933
  C   3.68482308248432      0.20414637727261     -0.18980733726854
  C   4.97804280904106     -0.37673629703936     -0.24256447924910
  C   6.13346035290272      0.40176906412282     -0.29929203045471
  C   6.03373083506404      1.81139126865093     -0.28892471384794
  C   4.78124902081234      2.39259255597807     -0.22311928999423
  C   3.58249769857912      1.64426893591553     -0.17210363221041
  C   2.31682353352971      2.38061953107653     -0.11035813277219
  N   1.15346206998864      1.67335272548377     -0.05570262516193
  C   -0.00097165671578      2.33696921658175      0.00057008836597
  N   -1.15481970478707      1.67231430788695      0.05651636801002
  C   -2.31879552435870      2.37854221687787      0.11150248580400
  C   -3.58378625872491      1.64100176959768      0.17285704137560
  C   -4.78327020464989      2.38812285576363      0.22416629083551
  C   -6.03518218347661      1.80565743791635      0.28960327283490
  C   -6.13352656832938      0.39592774474059      0.29927062418008
  C   -4.97732406392162     -0.38140851061254      0.24223101640841
  C   -3.68468505289640      0.20079276598594      0.18986116990524
  N   -2.58447111405456     -0.59490324591295      0.14197571173955
  C   -2.61530437796439     -2.03743135677742      0.14950965562950
  H   -1.58168780061699     -2.41045066733891      0.12587056449970
  H   -3.10024264144534     -2.44310400070439      1.05692290453527
  H   -3.14549585359832     -2.45495603435491     -0.72765331834643
  H   -1.69677840283023     -0.09122645707859      0.08418313417389
  H   -5.07384787158010     -1.46528220263735      0.23243811686405
  N   -7.40920206603059     -0.22739662406144      0.37356094619958
  C   -8.49567051089500      0.28957690457626     -0.38015777884566
  C   -8.29993098927311      0.74322130320020     -1.69780325129570
  C   -9.36671112748123      1.25504697095073     -2.43292409587846
  C   -10.64884564398638      1.31292515538292     -1.87313870454758
  C   -10.85265980856628      0.85186951492144     -0.56685456967435
  C   -9.78624008114832      0.35243102995629      0.17728629301654
  H   -9.95026323255418      0.00711297412812      1.19911364249833
  H   -11.84967057380894      0.89270623927226     -0.12573345317122
  C   -11.78925110296498      1.90270302515758     -2.65536286142243
  F   -12.98147772348165      1.37523178392573     -2.29182296695423
  F   -11.64822104241217      1.70391572534175     -3.98696102359304
  F   -11.88943591548486      3.24338600269160     -2.47490308809743
  H   -9.20575306435780      1.59441374254535     -3.45732158116114
  H   -7.30636884332126      0.68690277039655     -2.14439907785751
  C   -7.59224587689623     -1.39102639817521      1.16759934513237
  C   -7.04205597702675     -1.46380468294896      2.46126237211536
  C   -7.22012831731337     -2.60430460214127      3.23975809330103
  C   -7.95831818074489     -3.68895730135407      2.74798377139252
  C   -8.51890995454156     -3.61791714620479      1.46776288734161
  C   -8.33190916572959     -2.48331719938751      0.67984981911943
  H   -8.76291136103383     -2.43944912534288     -0.32146014532726
  H   -9.09749616087904     -4.45781039739898      1.08046798115318
  C   -8.11086958230092     -4.93361384694985      3.57736275531057
  F   -8.15949945798310     -4.65793336688230      4.90179325287259
  F   -7.07307325748663     -5.79017210616106      3.40148756134098
  F   -9.23422849151289     -5.61975315980083      3.26516497418030
  H   -6.80005940648657     -2.64533162953310      4.24603401192039
  H   -6.47854614956331     -0.61618723398285      2.85364441466608
  H   -6.93256078356090      2.42121962002743      0.34864169416022
  H   -4.68724601989957      3.47315364315244      0.22621398102148
  N   -2.38432123662427      3.71778797458115      0.11237048811773
  C   -1.23928316827615      4.41125805661693      0.05902608605264
  N   -0.00158615361493      3.74238529247480      0.00091365164035
  C   1.23552673896295      4.41236619968434     -0.05687454180522
  N   2.38117078999360      3.71992089556432     -0.11056550794320
  C   1.21123703078313      5.81641945174194     -0.05529035871493
  C   -0.00278784143441      6.49578641702293      0.00158808908453
  C   -1.21621890825910      5.81533421640787      0.05813243786439
  H   -2.17676763051752      6.32527200090779      0.10309619203034
  H   -0.00326416238001      7.58858416037037      0.00185636835006
  H   2.17134071581299      6.32721691681397     -0.10000486806670
  H   4.68417220693658      3.47753251392154     -0.22463680260301
  H   6.93049225090284      2.42787837911741     -0.34769767851659
  N   7.40975063200102     -0.22026622190170     -0.37398315911301
  C   8.49567449273323      0.29727441849204      0.38011104949129
  C   9.78626424683267      0.36163266101660     -0.17714152555071
  C   10.85208468378001      0.86169657565208      0.56745073293798
  C   10.64774644518728      1.32188679981366      1.87394572957265
  C   9.36557626231716      1.26250251237847      2.43354861913386
  C   8.29941961511246      0.75006042110085      1.69797325709350
  H   7.30583733569970      0.69257755928357      2.14441774377534
  H   9.20412494821137      1.60116886685501      3.45809581201032
  C   11.78755862491977      1.91230983907198      2.65652988668343
  F   11.88714266403595      3.25302573860602      2.47597964049795
  F   12.98018769604033      1.38541915692234      2.29345805959783
  F   11.64615070059158      1.71355531120783      3.98808906981705
  H   11.84910796987199      0.90369584602677      0.12644966834863
  H   9.95090875534814      0.01703750780624     -1.19910744520346
  C   7.59397940326760     -1.38308684484518     -1.16892321153444
  C   8.33478998561447     -2.47500706135572     -0.68204757288585
  C   8.52290370848949     -3.60878848720105     -1.47085234798395
  C   7.96230014744285     -3.67941771977952     -2.75110457397567
  C   7.22295318521394     -2.59516601633503     -3.24198378750185
  C   7.04375609239918     -1.45544309748577     -2.46258880142470
  H   6.47932159617647     -0.60811869052635     -2.85427207239737
  H   6.80283464456166     -2.63586576592391     -4.24824841013706
  C   8.11615254409620     -4.92334470679381     -3.58133587611045
  F   8.16240576388913     -4.64694091900726     -4.90569144792124
  F   7.08033126114744     -5.78207847756184     -3.40440583396222
  F   9.24130637264844     -5.60740835353750     -3.27101234365257
  H   9.10237590738098     -4.44840016938629     -1.08426192113301
  H   8.76577625600631     -2.43146353969042      0.31928278622136
  H   5.07563855974181     -1.46052205468856     -0.23334602087214
  H   1.69721998281928     -0.08999231559525     -0.08420956828449
  H   3.14858215375773     -2.45268268064008      0.72623661529095
  H   1.58456389473809     -2.40932170755547     -0.12694943650480
  H   3.10297215519444     -2.43985682454162     -1.05832296402376
