24
Coordinates from ORCA-job ./opt_b3lyp_cdz
  C   3.27005486727317     -0.00000950939268     -0.00008870285741
  C   2.57780000041582     -1.20897381599874     -0.00007807913719
  C   1.17377958158035     -1.23564448210369     -0.00007216235861
  C   0.38384126138525     -2.42550854028021     -0.00006100547830
  C   -1.00017282579002     -2.41044265973266     -0.00005486485248
  C   -1.67261964801147     -1.17125243916731     -0.00005999332765
  C   -0.86288077669625      0.00000366175583     -0.00007150064432
  C   -1.67261218381075      1.17126491504301     -0.00007543465599
  C   -3.02239489166167      0.69995778525410     -0.00006610834657
  C   -3.02239934680109     -0.69993672579165     -0.00005676898414
  H   -3.90794278281886     -1.33466178315556     -0.00004851049520
  H   -3.90793433244273      1.33468842732982     -0.00006628791944
  C   -1.00015745740856      2.41045086157436     -0.00008644215029
  C   0.38385673110907      2.42550793870295     -0.00009264071029
  C   1.17378747372723      1.23563884139879     -0.00008819348132
  C   2.57780771336282      1.20895921656546     -0.00009368955259
  H   3.10545319183861      2.16312766334507     -0.00010201617816
  N   0.49615628378069     -0.00000066494950     -0.00007727763008
  H   0.93017731481737      3.36951858669969     -0.00010132921442
  H   -1.55256872657132      3.35392048293102     -0.00009026093039
  H   -1.55259008304055     -3.35390877962796     -0.00004619770474
  H   0.93015586670784     -3.36952264159159     -0.00005737746605
  H   3.10543937369493     -2.16314563270539     -0.00007415431708
  H   4.36207930866008     -0.00001296560317     -0.00009297100728
