23
Coordinates from ORCA-job ./opt_b3lyp_cdz
  C   -3.18376624930810     -0.02142736806800     -0.00002338444536
  N   -2.54433781345504     -1.20162759604620     -0.00004118577951
  C   -1.20842803300611     -1.19078019568107     -0.00003461864371
  N   -0.48723517539244      0.02791931715568     -0.00000971501343
  C   0.86800818152047     -0.00393176677954     -0.00000222037793
  C   1.64547576569468     -1.18875928858213     -0.00001439444261
  C   3.01081242694090     -0.74308829106488      0.00000579816815
  C   3.04312516813954      0.65232633419451      0.00003213447779
  C   1.69941818911969      1.15448892391427      0.00002657504270
  C   1.04884297439006      2.39824374235336      0.00004349721123
  C   -0.34307239540067      2.44059572214228      0.00003247943272
  C   -1.14348486298249      1.26845258073351      0.00000724892970
  C   -2.55133328908626      1.21442658787006      0.00000018724765
  H   -3.11882037522189      2.14494529908217      0.00001252891115
  H   -0.86998633575871      3.39537312090924      0.00004363347740
  H   1.61547256350719      3.33331394667434      0.00006461743261
  H   3.94262854889543      1.26675916821396      0.00005111560525
  H   3.88231087177267     -1.39695509261902      0.00000242610514
  C   0.94167770735001     -2.40994304704989     -0.00003933558376
  C   -0.44482321369827     -2.39440897865692     -0.00005036298318
  H   -1.03000807674458     -3.31327351414823     -0.00007010825881
  H   1.46996907416076     -3.36713058630010     -0.00005154426533
  H   -4.27733680613683     -0.07531655184740     -0.00002748304783
