23
Coordinates from ORCA-job ./opt_b3lyp_cdz
  C   -3.24248750655785     -0.00480120007093      0.00006117154359
  C   -2.56405058913724     -1.22252729615772      0.00007971166697
  C   -1.16091430213400     -1.25920028351755      0.00008371783134
  C   -0.35676564713285     -2.44265038441824      0.00010222260780
  C   1.02704178804094     -2.41362373759762      0.00010496511524
  C   1.68959504163645     -1.16364626151389      0.00008850454720
  C   0.86439293800733     -0.01637399100472      0.00007103461592
  C   1.63547414938316      1.17921370451507      0.00005660217143
  C   3.00104758606566      0.74379800440035      0.00006900248325
  C   3.03225037448047     -0.65384788598576      0.00008224395572
  H   3.93437033763904     -1.26490573842954      0.00009071627219
  H   3.87258515545077      1.39708026235125      0.00006453264295
  C   0.88989675373091      2.36908004387805      0.00003751276618
  N   -0.44228016017087      2.38759169083975      0.00003452002032
  C   -1.14629296294702      1.22745998445632      0.00004916472803
  C   -2.54792589949652      1.20523711786433      0.00004610265165
  H   -3.05393433359499      2.16960600849734      0.00003150216539
  N   -0.48873192489109     -0.02562290942134      0.00006806111984
  H   1.37672731211948      3.35155218804029      0.00002668905512
  H   1.58692452704737     -3.35248147522431      0.00011857691569
  H   -0.89144827839558     -3.39339511043033      0.00011394402749
  H   -3.10298539597850     -2.17035625819211      0.00009163817027
  H   -4.33457705656508      0.00269122432131      0.00005832942642
