23
Coordinates from ORCA-job ./opt_b3lyp_cdz
  C   3.25983721096122      0.05933539746098      0.00010407205817
  C   2.53491779945599      1.25346047664411      0.00010711787772
  C   1.13536368404464      1.22932769062731      0.00010193915173
  N   0.50463336866015     -0.02517764596773      0.00009355466510
  C   -0.84258566280715     -0.03913922647036      0.00008846102752
  C   -1.65600677961772     -1.20104775636427      0.00007986912093
  C   -3.00106309195924     -0.70575694829769      0.00007741451472
  C   -2.98588777237423      0.69719934459201      0.00008331387254
  C   -1.62986118812496      1.14612014098664      0.00009103543588
  N   -1.04884906844300      2.37088589346624      0.00009913344272
  C   0.27311160632714      2.38262054149723      0.00010425412441
  H   0.76958481471007      3.35809074202034      0.00011084631379
  H   -3.85910896852706      1.34746359523036      0.00008271697946
  H   -3.89654097707464     -1.32624791167880      0.00007131264750
  C   -0.96991673356581     -2.43404186844634      0.00007659313228
  C   0.41866707376718     -2.43967203088037      0.00008184750501
  C   1.20233296784198     -1.24577307512037      0.00009040534471
  C   2.60629770699636     -1.17205233115143      0.00009584455630
  H   3.16773990787006     -2.10692110720842      0.00009351029886
  H   0.96779033452691     -3.38202237484093      0.00007960321271
  H   -1.51041599232455     -3.38442997713411      0.00007019863803
  H   3.03560132645974      2.22222199942620      0.00011368708889
  H   4.35128887759692      0.08995664950940      0.00010811699103
