22
Coordinates from ORCA-job ./opt_b3lyp_cdz
  C   -3.17197303020228     -0.07937448408495      0.00000092565420
  N   -2.49886066402320     -1.24480142889191     -0.00000576350282
  C   -1.16864377423334     -1.18387614673151     -0.00002107282390
  C   -0.33334876253129     -2.35595669864409     -0.00002968768495
  N   0.99172781358089     -2.37167511590739     -0.00004481296530
  C   1.60272450788340     -1.16404392301152     -0.00005255986839
  C   0.84960498416016      0.03461214969891     -0.00004477709847
  C   1.68487237504896      1.18265089439120     -0.00005544158532
  C   3.02381067200647      0.65519466264063     -0.00006975221963
  C   2.97548819960346     -0.74215808032209     -0.00006978624804
  H   3.83363956293272     -1.41226292890043     -0.00007984874259
  H   3.93310024008825      1.25495374239045     -0.00008007494942
  C   1.02145992984156      2.42074310513884     -0.00004973418829
  C   -0.37569436550508      2.45470571764582     -0.00003392928724
  C   -1.17168667580793      1.27983332287973     -0.00002341750273
  C   -2.57826437528218      1.17782197133357     -0.00000715639934
  H   -3.17968638167415      2.08691247416566     -0.00000111836907
  N   -0.49504338965118      0.05234862227363     -0.00002973069697
  H   -0.90395807913249      3.40870672944197     -0.00002907079039
  H   1.57648679350032      3.36279191114741     -0.00005717052019
  H   -0.86704869463204     -3.30960626529445     -0.00002311916493
  H   -4.26314023437107     -0.16442152645945      0.00001366315376
