16
Coordinates from ORCA-job ./opt_b3lyp_cdz
  C   -1.91544108679410     -1.78359083674886     -0.00777222982534
  N   -0.67431775682550     -2.27419154464136     -0.02397607231993
  C   0.31657740740210     -1.37531558623199     -0.01329494573495
  N   1.59951833807719     -1.75454916329777     -0.02777357638965
  C   2.50440372771812     -0.77354619294929     -0.01523253083098
  N   2.30886427339256      0.54647995006830      0.01008301284655
  C   1.03494651917339      0.95494412549736      0.02514571853712
  N   0.72209355251896      2.25550371196113      0.05088389377052
  C   -0.57996514268832      2.54843285960492      0.06393848073685
  N   -1.62556232928342      1.71899672548853      0.05485470176039
  C   -1.34251192960145      0.41162761415642      0.02918487624190
  N   -2.31260095891696     -0.50965610779908      0.01795355031287
  N   0.00300881578720     -0.00291008990483      0.01366036456283
  H   -2.71873787279959     -2.52918097036742     -0.01670352772527
  H   3.55177800742526     -1.09623910453538     -0.02727246267801
  H   -0.82405356458542      3.61672460969930      0.08509074673510
