21
Coordinates from ORCA-job ./opt_b3lyp_cdz
  C   -3.14057797151956     -0.10291847123840      0.00005443581544
  N   -2.45702045560948     -1.25890880512996      0.00008732862388
  C   -1.12729008537806     -1.19064296138440      0.00006522782158
  N   -0.38548816441314     -2.34120878695760      0.00009662238037
  N   0.93715202504024     -2.33241606286311      0.00007655655498
  C   1.57559076640460     -1.15198002051196      0.00002429643567
  C   0.84608553275169      0.06415351276416     -0.00000928597456
  C   1.68352047916847      1.19197510720809     -0.00006393479837
  C   3.02244548520348      0.63921056716624     -0.00006292928905
  C   2.96062633884117     -0.75301274303519     -0.00001329514353
  H   3.80942177921892     -1.43405692843862     -0.00000224357649
  H   3.93992479775349      1.22670449133986     -0.00009775932372
  C   1.01913185111682      2.43733403033785     -0.00010173551532
  C   -0.37472450059083      2.47083609359558     -0.00008262249813
  C   -1.17544404134211      1.29252533258680     -0.00002649679361
  C   -2.57610309330188      1.17157406127810     -0.00000145272834
  H   -3.19786581237497      2.06652770403126     -0.00002581609532
  N   -0.49118355037523      0.07251475125184      0.00000941616271
  H   -0.90173847125805      3.42558631849743     -0.00011085962664
  H   1.57381481676058      3.37927526509306     -0.00014532683092
  H   -4.23068934629614     -0.20596814739105      0.00007441479938
