23
Coordinates from ORCA-job ./opt_b3lyp_cdz
  C   -3.27358014493184     -0.03821463325298      0.00010850281145
  C   -2.57067927173407     -1.23560774745647      0.00008847298233
  C   -1.16087457202267     -1.24397514314355      0.00004857633212
  C   -0.34323507594338     -2.41172039052546      0.00002566819216
  C   1.04662404631113     -2.37160428146665     -0.00001233676011
  C   1.67766898109862     -1.11443886337644     -0.00002890812665
  C   0.83692926967613      0.02595205615356     -0.00000696051173
  C   1.64906134595473      1.18263989005580     -0.00002917179238
  C   2.97004133796168      0.63549834026653     -0.00008461831193
  N   2.98798392149054     -0.71280235592359     -0.00005333033719
  H   3.90457905336376      1.19875774154002     -0.00011610708424
  C   0.97254146612346      2.42854838623685     -0.00000151981849
  C   -0.40822540937983      2.43251890594059      0.00003497790659
  C   -1.20220156925255      1.23381943175518      0.00005272249677
  C   -2.59929708256271      1.18935958825839      0.00009086076798
  H   -3.14591506257791      2.13262781252884      0.00010752808386
  N   -0.51694195623151      0.00541946548782      0.00003155632654
  H   -0.96030036287385      3.37335294145594      0.00004978807164
  H   1.51635534217621      3.37684732857654     -0.00001946544613
  H   1.62936691271261     -3.29566433759819     -0.00002456521050
  H   -0.86741937772225     -3.36820924199602      0.00004258887937
  H   -3.08796235577484     -2.19545632024738      0.00010268647601
  H   -4.36549992126150     -0.05236398876932      0.00013906817253
