22
Coordinates from ORCA-job ./opt_b3lyp_cdz
  C   -3.18657127287189     -0.06146358626063     -0.00010275344105
  N   -2.53636441786688     -1.22893425438941     -0.00005909212191
  C   -1.19465792088657     -1.19934795287518     -0.00001448031081
  C   -0.40322363973510     -2.38205903005936      0.00003359672890
  C   0.98948314043166     -2.37238461243553      0.00007920458113
  C   1.65200005993940     -1.13161036011591      0.00007769165659
  C   0.84257275506815      0.02324549445389      0.00003032396204
  C   1.67486093158820      1.16726902098542      0.00003683965386
  C   2.98916634426919      0.58937479700363      0.00010579725211
  N   2.97637175588272     -0.75379630640184      0.00010768706998
  H   3.93544304266363      1.13258630133598      0.00013141416846
  C   1.01947474736616      2.41702319400877     -0.00001453257026
  C   -0.36907913275587      2.44809786105789     -0.00005954244941
  C   -1.17296025398823      1.26612514986656     -0.00006152495475
  C   -2.57333125196068      1.19342355081757     -0.00010627536850
  H   -3.16033243272581      2.11152619315736     -0.00014392722468
  N   -0.50789402184250      0.03406119697106     -0.00001524903643
  H   -0.90213988174931      3.39954962957880     -0.00009425840767
  H   1.57715547592236      3.35741282372359     -0.00001058960838
  H   1.54850497490828     -3.31101926011088      0.00011285329441
  H   -0.96647795618517     -3.31460256026141      0.00003074213365
  H   -4.27965120167175     -0.12825114585034     -0.00013814420729
