21
Coordinates from ORCA-job ./opt_b3lyp_cdz
  C   -3.23028780269181     -0.10721410633138     -0.00009281637768
  C   -2.48777271843792     -1.28368622234075     -0.00006987205179
  C   -1.08166296698517     -1.22719674881660     -0.00006156394189
  N   -0.30234167603705     -2.34995870848228     -0.00004245367998
  N   1.02333409331353     -2.30193134025008     -0.00003704431528
  C   1.60092230093265     -1.09328788631137     -0.00004854346814
  C   0.81672161266027      0.08830016661922     -0.00006651543911
  C   1.64030573184284      1.21109416932774     -0.00008116841935
  C   2.95251450166120      0.60168855161364     -0.00007747481452
  N   2.92935755058565     -0.74094470535317     -0.00004295685468
  H   3.90682498037997      1.13113455359470     -0.00008222821910
  C   0.95642175791883      2.46267017893047     -0.00010437823685
  C   -0.42688248015918      2.46662689491912     -0.00011414252915
  C   -1.22683624085691      1.26659551033260     -0.00010031414324
  C   -2.61932348789905      1.15809868668317     -0.00010844896767
  H   -3.21754349490322      2.06946246806539     -0.00012705628316
  N   -0.51963549113897      0.05769166916993     -0.00007549495199
  H   -0.97290421127296      3.41104989814872     -0.00013491356046
  H   1.49456835037973      3.41382621625223     -0.00011942196827
  H   -2.94937254369490     -2.27024890033082     -0.00005864922071
  H   -4.32073412769753     -0.16682453824049     -0.00009907455697
