22
Coordinates from ORCA-job ./opt_b3lyp_cdz
  C   -3.24592091877045     -0.05727279451785     -0.00000796716737
  C   -2.57566819182943      1.17444571774690     -0.00000706089642
  C   -1.18092958768130      1.22012755531226     -0.00000836794378
  N   -0.47924731758301      2.39213140708031     -0.00000900101631
  C   0.84837242252174      2.39136665612243     -0.00001139793462
  C   1.60689812708899      1.19962909050090     -0.00001060305361
  C   0.83804234403396      0.01470607462227     -0.00001119042796
  C   1.69912934840842     -1.09718267657320     -0.00001462593032
  N   3.00216640391742     -0.65236543982518     -0.00001719966413
  C   2.94892440656390      0.69177840816654     -0.00000828301653
  H   3.86795660509120      1.27936862730016     -0.00000689383361
  C   1.08566972686093     -2.36796176972428     -0.00001637524650
  C   -0.30335807350964     -2.42968417749992     -0.00001467548284
  C   -1.14155890751218     -1.27270650409638     -0.00001166892616
  C   -2.55051619852771     -1.26067198098788     -0.00001037012111
  H   -3.07494286129742     -2.21660490279278     -0.00001139223995
  N   -0.50922385044815     -0.02225025997177     -0.00001029413722
  H   -0.81058367629040     -3.39532457458930     -0.00001624908676
  H   1.68004999088464     -3.28449073750598     -0.00001943823829
  H   1.32150519138022      3.38051529654451     -0.00000878668208
  H   -3.10608039185810      2.12552087468910     -0.00000567880385
  H   -4.33793934934362     -0.06941619990085     -0.00000701435059
