21
Coordinates from ORCA-job ./opt_b3lyp_cdz
  C   -3.23410427591378     -0.01538437336106      0.00009129181325
  C   -2.52435139652736     -1.22747753493896      0.00004355415387
  C   -1.13136843460467     -1.21154948634752      0.00003737424921
  N   -0.37459765622645     -2.37562881021058      0.00000085648707
  N   0.93482578749282     -2.36396968501452     -0.00000254117460
  C   1.56311436208478     -1.16364989227861      0.00002622718470
  C   0.81558767084270      0.03261758419246      0.00007158692785
  C   1.67569313760116      1.13267091821430      0.00011896991457
  N   2.97905914428686      0.66679989196052      0.00011789803350
  C   2.91716489891807     -0.67606254321308      0.00000406616739
  H   3.82633137655222     -1.27738088326691     -0.00003357870456
  C   1.04659438907327      2.39856536061226      0.00017068017502
  C   -0.34666467264131      2.44755889183894      0.00017397167771
  C   -1.17804716509908      1.28352865301996      0.00012972360717
  C   -2.58644611512113      1.21713900118174      0.00013471996634
  H   -3.15176649037254      2.14948994134883      0.00017450511707
  N   -0.52046253408552      0.05019184313512      0.00007863384433
  H   -0.85852463348428      3.41069208602020      0.00021813195937
  H   1.62645745206724      3.32445863677833      0.00021390354996
  H   -3.02084322259155     -2.19682088407452      0.00001244451791
  H   -4.32581254365141     -0.04141587049688      0.00009640733286
