21
Coordinates from ORCA-job ./opt_b3lyp_cdz
  C   3.19334778111055      0.02122070354969      0.00001602503071
  N   2.55815252132521      1.20525371995005      0.00001544721826
  C   1.22414018262142      1.19311748856792      0.00001132790652
  C   0.43086728969055      2.38829614970375      0.00001024494190
  C   -0.95665804045014      2.39186878944993      0.00000592052261
  C   -1.62499727175969      1.14282429712126      0.00000276327998
  C   -0.81623079551550      0.00322553592706      0.00000377124587
  C   -1.67785930450638     -1.10383078889370      0.00000003984167
  N   -2.96489259617923     -0.62065052493562     -0.00000538531357
  N   -2.93316068914530      0.71581188557600      0.00000047601995
  C   -1.06657258191919     -2.37640582441046      0.00000105298034
  C   0.32450287844405     -2.43574152864608      0.00000496623374
  C   1.15983985314566     -1.27593010197538      0.00000855976954
  C   2.56461201613934     -1.22230462334685      0.00001274558532
  H   3.14102752051345     -2.14721910281397      0.00001348161447
  N   0.52771944963183     -0.02996543106128      0.00000787046479
  H   0.83353001073067     -3.40038325731609      0.00000512456407
  H   -1.65676826122569     -3.29583766859675     -0.00000223873129
  H   -1.50611023494338      3.33608599654078      0.00000602041225
  H   1.00178620215765      3.31646953286795      0.00001345857107
  H   4.28659485593410      0.07396705104181      0.00001928524181
