16
Coordinates from ORCA-job ./opt_b3lyp_cdz
  C   0.07457125702670      5.93769867507579      8.12206245330205
  N   -1.24308720367343      6.14896061249499      8.13534792582791
  C   -1.94552990366150      5.56429080254731      7.15691925226603
  N   -3.28461670813235      5.72522380387758      7.09579705136656
  N   -3.97439064333703      5.14256163551106      6.12220773376526
  C   -3.37496838802533      4.39966989344302      5.20000235063955
  C   -1.98053813484904      4.17842588627283      5.18852761248672
  C   -1.21663866532399      3.41744650681469      4.27699608255210
  N   0.10042326859268      3.28876682705839      4.37927077165605
  N   0.77829443426636      3.87685057522749      5.35794334995647
  C   0.12273381309254      4.62296175349575      6.27246833598189
  N   0.79925283191094      5.21883267614486      7.26235438564524
  N   -1.27263285677056      4.78437996722376      6.19905879483523
  H   0.63893729263508      6.42097956807495      8.92750972576311
  H   -4.00850061508618      3.95334156589084      4.43124683854106
  H   -1.70387977866485      2.90435925084666      3.44579733541473
