20
Coordinates from ORCA-job ./opt_b3lyp_cdz
  C   -3.23739884344865     -0.04408038704145      0.00019058471244
  C   -2.51960478085633     -1.24636389998713      0.00016147740796
  C   -1.12220373319216     -1.21431756557462      0.00009942862165
  N   -0.34184478690522     -2.35868298770052      0.00007055708690
  N   0.97048839774469     -2.32944581213584      0.00001470665393
  C   1.56486009520401     -1.11197518877790     -0.00001779821793
  C   0.79138411750187      0.05412237017191      0.00000882157117
  C   1.65427506922256      1.13649240122909     -0.00002705949575
  N   2.93761991308097      0.61257018290466     -0.00007528283724
  N   2.88445347847472     -0.72251218061229     -0.00007315606039
  C   1.02516669004766      2.41318551821382      0.00000032172921
  C   -0.36352032160900      2.45526848891612      0.00006055420161
  C   -1.20234960927341      1.28433716107974      0.00009788900902
  C   -2.60347435327057      1.20343076109713      0.00016043267575
  H   -3.18457672928760      2.12597282178485      0.00018517609821
  N   -0.53991072634628      0.05621125034139      0.00006901152746
  H   -0.87853953596456      3.41694233052010      0.00008324302781
  H   1.59985494881289      3.34214285850784     -0.00002312047458
  H   -3.00819713170751     -2.21988565344518      0.00018617178908
  H   -4.32870863872805     -0.08062407929170      0.00023904447370
