22
Coordinates from ORCA-job ./opt_b3lyp_cdz
  C   3.05877431209094      0.63645168608215      0.00004878139188
  C   1.72280642063902      1.14936073220564      0.00001361218300
  C   0.88591022897948     -0.01183153818925     -0.00002768754381
  C   1.64813529102313     -1.20217555843389     -0.00001971971816
  C   3.01331210807656     -0.76284668635650      0.00002795506965
  H   3.88243629417114     -1.42006689698175      0.00004591681155
  C   0.92291612713843     -2.41749502129231     -0.00005754355414
  C   -0.46147902952191     -2.38493192765342     -0.00009950649005
  C   -1.20294126818448     -1.16407657431954     -0.00010621544774
  N   -2.54087742154020     -1.14904673069132     -0.00014647145598
  N   -3.19592803130069      0.01745894234162     -0.00015100470535
  C   -2.52608172459029      1.16243995700642     -0.00011569183345
  C   -1.11402521936887      1.26278423144213     -0.00007165840163
  N   -0.46027192193962      0.03297705744980     -0.00006813653625
  C   -0.32587189859083      2.43634825997751     -0.00003213844736
  C   1.07095497502545      2.39184737136386      0.00001006299366
  H   1.63699455733024      3.32707704457603      0.00003980561798
  H   -0.85204085838416      3.39152181733025     -0.00003548570847
  H   -3.12706900462130      2.07515496244136     -0.00012177279633
  H   -1.06131501501757     -3.29434985368902     -0.00012981056311
  H   1.43796895795301     -3.38164865011525     -0.00005451203345
  H   3.96535357943252      1.23992902370545      0.00008529086759
