21
Coordinates from ORCA-job ./opt_b3lyp_cdz
  C   -3.04276885218753     -0.69887924700090     -0.00006068004678
  C   -1.68800669040367     -1.17798301785946     -0.00007916079259
  C   -0.89494087184893     -0.00001455554578     -0.00004807451633
  C   -1.68805419404248      1.17792185194000     -0.00001308045489
  C   -3.04279702605401      0.69876337001662     -0.00002451376889
  H   -3.93162619982321      1.32842585846522     -0.00000544982056
  C   -0.99044659069229      2.39975935916157      0.00001849237686
  C   0.40603705196319      2.39983009439457      0.00001386725889
  C   1.15700528519118      1.20010503292780     -0.00002194930300
  N   2.50702598211676      1.16139786947854     -0.00002740650936
  N   3.14102086049417      0.00006670843203     -0.00006216116123
  N   2.50707282028943     -1.16128981046797     -0.00009314107513
  C   1.15705358126112     -1.20005142476117     -0.00008965418344
  N   0.44746354163022      0.00001250007299     -0.00005291943113
  C   0.40613382279889     -2.39980673344312     -0.00012154516408
  C   -0.99034986877090     -2.39979234743941     -0.00011705046612
  H   -1.52315878988206     -3.35429225907199     -0.00014246011910
  H   0.98075980633509     -3.32530397536965     -0.00014983424920
  H   0.98062578018693      3.32535046612437      0.00003733167235
  H   -1.52329404442946      3.35423774779543      0.00004585628099
  H   -3.93157260033243     -1.32857762914972     -0.00007484672722
