22
Coordinates from ORCA-job ./opt_b3lyp_cdz
  C   -3.23219369477181     -0.06534151069585      0.00010267496499
  C   -2.57669964526050      1.16751152976865      0.00009893411465
  C   -1.17460708827797      1.23601168084353      0.00009307790554
  N   -0.47921098104169      2.39932054674422      0.00009004657131
  C   0.85763560239806      2.39367585562385      0.00008510947272
  C   1.61779485324826      1.21111469646173      0.00008138830927
  C   0.84387606437581      0.02328612936933      0.00008535811295
  C   1.64657218613924     -1.13698153177274      0.00008318219445
  C   2.99622578796554     -0.64968829000085      0.00007934943569
  C   2.97951641284368      0.75149522153235      0.00007316926758
  H   3.86102423429055      1.39114900293444      0.00006711997499
  H   3.88702624019805     -1.27594413631037      0.00007783126080
  N   1.07748216115127     -2.37268742296967      0.00008618836380
  C   -0.24366541815834     -2.40061111596824      0.00009147823818
  C   -1.12191239076268     -1.25514247776243      0.00009457671626
  C   -2.52119530179308     -1.26890666710356      0.00010061536257
  H   -3.03416948708115     -2.23118772099263      0.00010376100179
  N   -0.49788564219333     -0.00205235329654      0.00009099368173
  H   -0.72686262542986     -3.38284736343352      0.00009414340618
  H   1.33051072162326      3.38269773096335      0.00008095525105
  H   -3.11845134506865      2.11259096322267      0.00010060762101
  H   -4.32394240679466     -0.08851480155773      0.00010732617249
