21
Coordinates from ORCA-job ./opt_b3lyp_cdz
  C   -3.14779758249003     -0.03701524020897     -0.00004449643738
  N   -2.54309107491375      1.16337130432358     -0.00002814914363
  C   -1.21123751822229      1.19904713309066     -0.00001618107741
  N   -0.53150252372220      2.36594545638383      0.00000101731144
  C   0.80619934691225      2.38754287487184      0.00001275293244
  C   1.59458435640792      1.22373584941724      0.00000796062134
  C   0.84808435347797      0.02751455773211     -0.00001008243244
  C   1.67041597033314     -1.12417281430796     -0.00001271772262
  C   3.01525903760033     -0.61094014682359      0.00000378047944
  C   2.97040841405873      0.78553020873796      0.00001785604002
  H   3.83943437284578      1.44208335340169      0.00003237830711
  H   3.91766459461353     -1.22001168520542      0.00000606083403
  N   1.12103968565613     -2.35901344571304     -0.00002812077080
  C   -0.20772190348630     -2.41231169637708     -0.00004029561808
  C   -1.09335427629053     -1.28329502605610     -0.00003806889339
  C   -2.49685568014675     -1.26918099554237     -0.00005000218792
  H   -3.05157863250036     -2.20732070518027     -0.00006319750693
  N   -0.48934389667507     -0.02610018531496     -0.00002174146294
  H   -0.67028767282190     -3.40354765618060     -0.00005308404632
  H   1.25600991367875      3.38749216117477      0.00002734745536
  H   -4.24235441661535     -0.00716280662331     -0.00005388858137
