15
Coordinates from ORCA-job ./opt_b3lyp_cdz
  C   0.98411518211214     -8.87273107665450     -5.28701168255265
  N   -0.31867292750167     -9.01648748665362     -5.44046884986769
  C   -1.09942106864905     -8.01935627073778     -4.96035931224842
  N   -2.42519684300448     -8.07264520498567     -5.06743791498065
  N   -3.16560599542254     -7.06346476773006     -4.57814641102443
  C   -2.61108177913771     -6.01954060413342     -3.99354483828212
  C   -1.20405873926252     -5.87995684965849     -3.83634724058340
  N   -0.61037865782875     -4.83480447543449     -3.24915010337124
  N   0.72600767103394     -4.82370625039687     -3.16443641692581
  N   1.48055353537603     -5.77942766269418     -3.62435372252901
  C   0.91781783839262     -6.87374971333374     -4.23542351866721
  N   1.66411718668048     -7.85161741414344     -4.70743590352978
  N   -0.46843790057596     -6.92470841018009     -4.34462292454744
  H   1.60826252254252     -9.68349693660824     -5.67795275730660
  H   -3.26592002475510     -5.23216687665539     -3.61629840358352
