22
Coordinates from ORCA-job ./opt_b3lyp_cdz
  C   -3.25091549205467     -0.00005484648366     -0.00009480624487
  C   -2.56443358200906     -1.21782781290792     -0.00009715473686
  C   -1.16320768406413     -1.24117754172103     -0.00008831861851
  C   -0.30600111874698     -2.39968781102833     -0.00009169383952
  N   1.01974515940367     -2.39576624851703     -0.00008365195263
  C   1.61283172897422     -1.17594030173206     -0.00006788595695
  C   0.82312034567463      0.00001681881761     -0.00006162901508
  C   1.61279031741621      1.17600173696515     -0.00005553603485
  C   2.96448908049564      0.70376721785492     -0.00005642620381
  C   2.96451388079005     -0.70365817773579     -0.00006291765693
  H   3.84915194423082     -1.33844150789040     -0.00006375137723
  H   3.84910475045251      1.33858175449024     -0.00005121476589
  N   1.01966085494407      2.39580682258386     -0.00005838865338
  C   -0.30608556826941      2.39968178801017     -0.00006636329069
  C   -1.16325133336190      1.24114134893648     -0.00007526886025
  C   -2.56447641435155      1.21774225637999     -0.00008438092372
  H   -3.10031003271535      2.16769199384335     -0.00008536448402
  N   -0.51262737084891     -0.00000665480399     -0.00007389850229
  H   -0.80522621083787      3.37355985532450     -0.00006842015920
  H   -0.80510749508539     -3.37358343015053     -0.00010392309965
  H   -3.10023376534006     -2.16779641484559     -0.00010812313973
  H   -4.34266537569650     -0.00007404808995     -0.00010044858397
