20
Coordinates from ORCA-job ./opt_b3lyp_cdz
  C   -3.13478932524712     -0.03891755042117     -0.00005295528666
  N   -2.49060615035183     -1.21788619028812      0.00004845049187
  C   -1.15803436619610     -1.19478430283727      0.00003136554063
  N   -0.42866614867300     -2.35170439006712      0.00011922674017
  N   0.89915413529740     -2.36010613772192      0.00009920897889
  C   1.55426089945483     -1.18735545373381      0.00000061270012
  C   0.82711219213139      0.02234442397433     -0.00008811907522
  C   1.64405300304897      1.16190650930695     -0.00021570787090
  C   2.99039579861291      0.62840857032782     -0.00019410656971
  C   2.93846422108442     -0.76792159677141     -0.00007577471790
  H   3.79671247890837     -1.43720859295845     -0.00003917400874
  H   3.89985806617235      1.22730431420585     -0.00026779599420
  N   1.07811663562312      2.39266103392359     -0.00033537635532
  C   -0.25292111421242      2.43290011810624     -0.00032184654675
  C   -1.13248045565311      1.29395710022604     -0.00019911006682
  C   -2.53305728813106      1.22404536132314     -0.00017926357906
  H   -3.13002036319928      2.13577228231811     -0.00026083872574
  N   -0.49897690822510      0.05262430551948     -0.00008350174794
  H   -0.72186631124358      3.42099842005430     -0.00041542048379
  H   -4.22742470480114     -0.10750853708659     -0.00003292942292
