21
Coordinates from ORCA-job ./opt_b3lyp_cdz
  C   -3.17995517579808     -0.00585286021403      0.00006111039449
  N   -2.57175278917178      1.18300896148529      0.00004203118355
  C   -1.22751954225574      1.20213631469307      0.00002748624321
  C   -0.44800239783094      2.39211237534667      0.00000699605064
  C   0.95039683940048      2.39886722745085     -0.00000761550755
  C   1.63075153340169      1.16689871656417     -0.00000213561153
  C   0.82289437501365      0.01918565226578      0.00001780247121
  C   1.63570462041600     -1.13421249797857      0.00002189435369
  N   1.07944189428354     -2.37108447941581      0.00004161770829
  C   -0.24509016036620     -2.40849755393682      0.00005590892551
  C   -1.12977535184431     -1.26470303124628      0.00005266103167
  C   -2.52692572336120     -1.24769577934564      0.00006742822696
  H   -3.08577232760570     -2.18326810061119      0.00008358350334
  N   -0.51689977805116     -0.01293355703592      0.00003255342811
  H   -0.72181140903745     -3.39319205248118      0.00007168732717
  C   2.95998437446558     -0.57399396991363      0.00000153563925
  N   2.95488426530450      0.77119139743855     -0.00001082049208
  H   3.89946987670238     -1.12767622431806     -0.00000251014164
  H   1.49163579501549      3.34807322780260     -0.00002267065376
  H   -1.01668283947640      3.32145408293147      0.00000346887071
  H   -4.27453989360436      0.02425415091869      0.00007245254878
