21
Coordinates from ORCA-job ./opt_b3lyp_cdz
  C   -3.23696078021361     -0.03220042566129     -0.00003625180921
  C   -2.57337328913856      1.19061894517535     -0.00004298832231
  C   -1.16359817789658      1.24273962006725     -0.00006595828732
  N   -0.44347037840805      2.38510035770170     -0.00006859098572
  C   0.90028752342824      2.36182816561241     -0.00008783401569
  C   1.62094612030940      1.15740277078219     -0.00010778199764
  C   0.81801767327472      0.00015963791924     -0.00010718818242
  C   1.62370588559800     -1.14277221278284     -0.00012161207280
  C   2.94649567023189     -0.57770939787830     -0.00016400043015
  N   2.94397452867005      0.77061499414596     -0.00011224046496
  H   3.88757899403684     -1.12902572656047     -0.00018579180052
  N   1.05534053918132     -2.38877902963712     -0.00010540281247
  C   -0.26120025997211     -2.41051215750430     -0.00008330600763
  C   -1.14885593685833     -1.25578737470724     -0.00007297721686
  C   -2.54167012990527     -1.25442398172076     -0.00004995896515
  H   -3.07305078418895     -2.20653038790213     -0.00004051847947
  N   -0.52107378903701     -0.00812540134673     -0.00008284421026
  H   -0.74935419541085     -3.39059167067402     -0.00007600649720
  H   1.39722548947469      3.33786694673071     -0.00008078014418
  H   -3.10753263311807      2.14012403405128     -0.00003001146246
  H   -4.32893001125777     -0.04354076771089     -0.00001799223558
