20
Coordinates from ORCA-job ./opt_b3lyp_cdz
  C   3.15202277493195      0.00162483095305      0.00002873479608
  N   2.53912265629981     -1.18685958331623      0.00004503800286
  C   1.19859668387872     -1.20524260056127      0.00004058263896
  N   0.49533413591567     -2.35220081342043      0.00006793480180
  C   -0.84964336132872     -2.35691556140903      0.00006639100370
  C   -1.59889805826719     -1.17019171209695      0.00003474983652
  C   -0.82272815101963     -0.00289366798039      0.00000826962015
  C   -1.64623628069537      1.13076128517251     -0.00001589509620
  C   -2.96410586072619      0.53932534277258     -0.00005343415764
  N   -2.93472450316226     -0.80353337207297      0.00003793200109
  H   -3.91498377087271      1.07352700131051     -0.00007973744042
  N   -1.09684366868204      2.37569111265193     -0.00002210498884
  C   0.22635015266415      2.42311119223809     -0.00001449546114
  C   1.12176649145148      1.28333277639538      0.00000143917748
  C   2.51779225355739      1.25368141154110      0.00000832497034
  H   3.09130976969794      2.18025126039587      0.00000119799503
  N   0.51246578516581      0.03311019240036      0.00001636999751
  H   0.69443612701272      3.41202051435448     -0.00002781061356
  H   -1.32338261669581     -3.34466821946264      0.00009427155562
  H   4.24656460877428     -0.03864918336591      0.00003306606060
