21
Coordinates from ORCA-job ./opt_b3lyp_cdz
  C   3.25453808379304      0.02793429176117     -0.00017887122918
  C   2.58055489296434     -1.20788148629733     -0.00019944064112
  C   1.18775607248679     -1.24165679026479     -0.00017505204370
  C   0.31862965228893     -2.41042997542406     -0.00019461066322
  N   -1.00014018675348     -2.41152594058892     -0.00017379308390
  C   -1.59135918373843     -1.17824350720442     -0.00012592269984
  C   -0.79871276914748     -0.02320547722482     -0.00010311934104
  C   -1.61703049267016      1.12734759017750     -0.00006869079203
  N   -2.92700518104850      0.72836023083853     -0.00006753386792
  C   -2.91628143739928     -0.62540224619303     -0.00009639180543
  H   -3.85278268958196     -1.18414016348680     -0.00009994793733
  N   -1.05981712196649      2.35593999075309     -0.00005148056177
  C   0.27321470361899      2.38201856827211     -0.00007004883169
  C   1.15332573972522      1.24602040874159     -0.00011020705294
  C   2.56258476210361      1.23493938996822     -0.00013578767386
  H   3.09176429861468      2.18866289515984     -0.00012154741590
  N   0.53385326233200     -0.00594731962684     -0.00012856746912
  H   0.75082915151351      3.36637243503029     -0.00005592531760
  H   0.82295107168437     -3.38209109545098     -0.00023194637723
  H   3.13179876032807     -2.14880373504093     -0.00023507167311
  H   4.34625241855223      0.03758122740058     -0.00019790902208
