20
Coordinates from ORCA-job ./opt_b3lyp_cdz
  C   -3.16808589438536     -0.04664414889740      0.00008328595244
  C   -2.55129476359901      1.21661609794250      0.00011398252740
  C   -1.15440812222253      1.27839379130402      0.00008882421489
  N   -0.52297703919057      0.03766333259055      0.00003428197050
  C   0.80685675793833      0.01825433730485      0.00000694030185
  C   1.58752682181852     -1.14781205643161     -0.00004661482197
  N   2.91565642378400     -0.77641900634024     -0.00005222281633
  C   2.94133769776760      0.57009017184346     -0.00003301393492
  C   1.62273539271119      1.15937718765548      0.00002820998084
  N   1.05676222776012      2.39369912938847      0.00008503129361
  C   -0.27101047799378      2.42593954802733      0.00011275192340
  H   -0.74821033215660      3.41020249737486      0.00015553439381
  H   3.89129197287155      1.10571148065364     -0.00003766399141
  N   0.99715382429175     -2.35909697083007     -0.00007506945149
  C   -0.33887889864041     -2.35329731900598     -0.00004943269551
  C   -1.18840625795861     -1.19456368077160      0.00000592176308
  N   -2.52875626289738     -1.22215984994024      0.00003146799732
  H   -0.85564163182061     -3.31601944423944     -0.00006984312723
  H   -3.14274872490541      2.13203794180845      0.00015723589135
  H   -4.26112774317282     -0.10562619063702      0.00010322222839
