20
Coordinates from ORCA-job ./opt_b3lyp_cdz
  C   -3.22342971850429     -0.04074238249657      0.00014052700898
  C   -2.57550267151070      1.21282307017924      0.00018925355306
  C   -1.18528170041052      1.26673480491423      0.00017491046046
  C   -0.30317489984650      2.43142917188883      0.00023060320243
  N   1.01446394097161      2.42179414399151      0.00021757800704
  C   1.59808863658300      1.17795102157260      0.00013523936690
  C   0.79747990488247      0.04752102595796      0.00008429447062
  C   1.58150781783333     -1.12740072594073      0.00005027630285
  N   2.90887401556526     -0.75695662571127      0.00010646410095
  C   2.92162853663044      0.58918358119153      0.00007824421995
  H   3.86929213372399      1.12967977841797      0.00010110740846
  N   0.99091758456051     -2.32923627002214      0.00002311304327
  N   -0.34290928863940     -2.36337449386703      0.00002416223919
  C   -1.11138747667810     -1.23646970719889      0.00006792399099
  N   -0.52982215642634      0.03477625047103      0.00010681392205
  C   -2.52273549341979     -1.24235087980274      0.00008271290430
  H   -3.02404632445383     -2.20970910254781      0.00004992974850
  H   -0.79742383688635      3.40838307911382      0.00028434928217
  H   -3.14784921515358      2.14082934978892      0.00024060776587
  H   -4.31510873622121     -0.06665646830049      0.00015215500195
