19
Coordinates from ORCA-job ./opt_b3lyp_cdz
  C   -3.13690093753985     -0.07109887141425     -0.00005838054686
  N   -2.48631624588764     -1.23789695578559     -0.00011540659339
  C   -1.14503886292611     -1.19922728916086     -0.00008872488295
  N   -0.39506552534521     -2.33463071236200     -0.00017884457625
  N   0.94215587217253     -2.32480453478353     -0.00017902197189
  C   1.55961717650178     -1.13826371760542     -0.00004658919596
  C   0.80363179007430      0.04612879948908      0.00006750294123
  C   1.62141253809229      1.16722329408827      0.00011383573158
  C   2.94017789407664      0.55153689734242      0.00004817469471
  N   2.90039659818110     -0.78881301622663     -0.00005620976483
  H   3.89744399016948      1.07485133581440      0.00006407932732
  N   1.05601311511336      2.40969973445741      0.00014728469871
  C   -0.26850995633724      2.44453936265537      0.00013104277797
  C   -1.15884443774713      1.29450058980984      0.00006322040584
  C   -2.55080028017044      1.21127447616832      0.00002132294644
  H   -3.16489347420294      2.11135866823677      0.00004830956817
  N   -0.52029418834683      0.05968096309559      0.00002402274756
  H   -0.74277853192134      3.43043341889204      0.00016101336490
  H   -4.22928191305675     -0.14871791881123     -0.00008066847233
