22
Coordinates from ORCA-job ./opt_b3lyp_cdz
  C   -3.03953933826307     -0.64873782341821      0.00002347966945
  C   -1.70186993461798     -1.16377118462436      0.00002388180308
  C   -0.87826663786425     -0.01399497265424      0.00001350885860
  C   -1.64134748609247      1.18745156495387      0.00000685551990
  C   -3.00434564770289      0.75306631944936      0.00001367607466
  H   -3.87660204948029      1.40534195141870      0.00001137230063
  C   -0.88251857181486      2.37313250391732     -0.00000358986363
  N   0.45064067878327      2.38021820636414     -0.00000698805661
  C   1.13641383224793      1.21152711518982     -0.00000033585155
  C   2.53979759884978      1.13556555412322     -0.00000330373248
  N   3.22666187273121     -0.01223254866621      0.00000317974997
  C   2.54959567779563     -1.16250351177626      0.00001310606049
  C   1.14571900829303     -1.25030362889590      0.00001727477488
  N   0.46657640885135     -0.02686176822915      0.00001020523798
  C   0.35349654365818     -2.43942185484257      0.00002784373718
  C   -1.03205066275380     -2.41256380912771      0.00003118212447
  H   -1.58892218825068     -3.35303835800544      0.00003932625398
  H   0.89119716043136     -3.38849719233111      0.00003328108623
  H   3.13058129508998     -2.08925888727887      0.00001828485504
  H   3.09591196894672      2.07558262085435     -0.00001143518003
  H   -1.36072750790398      3.35949470394013     -0.00000933464196
  H   -3.94545065783415     -1.25400827396088      0.00003003271969
