21
Coordinates from ORCA-job ./opt_b3lyp_cdz
  C   -3.01623339011061     -0.70030785788884      0.00009322394768
  C   -1.66060998622613     -1.17650004306807      0.00007607362537
  C   -0.87806135037069     -0.00000143787633      0.00008224387965
  C   -1.66062099407036      1.17648983399356      0.00010831508795
  C   -3.01623993413207      0.70028492629964      0.00012232569017
  H   -3.90692995679190      1.32723133947706      0.00014478764798
  C   -0.91312571950368      2.37588408725727      0.00011506491776
  N   0.41914185718912      2.39936326309691      0.00009961321735
  C   1.12188027604425      1.23852626046210      0.00007569050910
  C   2.52503953526640      1.15483376243649      0.00005819174163
  N   3.19864560844542      0.00001759439297      0.00003474138786
  C   2.52505033036405     -1.15480487448229      0.00002721770326
  C   1.12189184838617     -1.23851047955171      0.00004270004516
  N   0.41916429011777     -2.39935404508407      0.00003681030785
  C   -0.91310350382257     -2.37588728724768      0.00005411772875
  H   -1.40252613227337     -3.35658057025425      0.00004403238344
  N   0.46226106039046      0.00000481481415      0.00006664505799
  H   3.09245565945120     -2.08820170534169      0.00000848022488
  H   3.09243617233762      2.08823588456476      0.00006405187246
  H   -1.40255750388080      3.35657281629713      0.00013578333629
  H   -3.90691755311030     -1.32726259509713      0.00009158868744
