21
Coordinates from ORCA-job ./opt_b3lyp_cdz
  C   -3.17985581786994     -0.07408790266058     -0.00010485026559
  N   -2.59368790359812      1.14334436737874     -0.00012170130131
  C   -1.26531837948584      1.19091090195909     -0.00011031672383
  C   -0.50817572887429      2.41125928778930     -0.00012717859149
  C   0.87820954876797      2.45169547209282     -0.00011540395824
  C   1.60238805238613      1.23108771091255     -0.00008507329352
  C   0.82335667277371      0.06874099052319     -0.00006797881933
  C   1.66457316510891     -1.07502320991447     -0.00004610294798
  N   2.97348041365380     -0.66002198448621     -0.00004395139595
  C   2.93847790320085      0.68349676757667     -0.00007542194859
  H   3.86784225784388      1.25541037359987     -0.00008095599442
  N   1.14640229221613     -2.31185534007696     -0.00003171462270
  C   -0.18927896601139     -2.38096570394572     -0.00003998502605
  C   -1.09028477883014     -1.27286078432012     -0.00006473326679
  C   -2.50107092086443     -1.28502620112512     -0.00007749349537
  H   -3.03360194585158     -2.23604952622158     -0.00006622770262
  N   -0.51459086700160     -0.00159042579824     -0.00007997564946
  H   -0.63586352326283     -3.37926808497160     -0.00002734111202
  H   1.38387208726101      3.42090723795364     -0.00013277378329
  H   -1.10349443054624      3.32394506689432     -0.00015184128143
  H   -4.27404990141603     -0.06548055225961     -0.00011430462005
