21
Coordinates from ORCA-job ./opt_b3lyp_cdz
  C   3.23426235003099      0.10919521685802     -0.00013705684775
  C   2.60007568446749     -1.14289833173179     -0.00014401902574
  C   1.20564891001237     -1.23015495168022     -0.00010956536838
  N   0.50975175466063     -2.40446272479605     -0.00009230763382
  C   -0.82134568717913     -2.41358392076507     -0.00004483559016
  C   -1.59203751515567     -1.22670188275026     -0.00004627242644
  C   -0.81893055538818     -0.05172384975171     -0.00004928831187
  C   -1.65544542201692      1.07829485718104      0.00001567525798
  N   -2.96207839472235      0.65631179184906      0.00007592708106
  C   -2.92860994374687     -0.68996230717372     -0.00003864406829
  H   -3.85777805950262     -1.26110621716267     -0.00003415161629
  N   -1.12907123948375      2.32540857318689      0.00003973515657
  C   0.19691940994527      2.38367033733073     -0.00000249168502
  C   1.10525334185643      1.26491261713996     -0.00005848646629
  C   2.50995959104550      1.29943329757624     -0.00009250697319
  H   3.01067943521825      2.26812478977259     -0.00008156385930
  N   0.51747966147766     -0.00158261456503     -0.00007537096489
  H   0.65306142964778      3.37851401840065      0.00001667951637
  H   -1.28328075692733     -3.40780185019926     -0.00006572188099
  H   3.16268756166553     -2.07557666388859     -0.00017066419249
  H   4.32551490389494      0.14891377886921     -0.00016339660110
