20
Coordinates from ORCA-job ./opt_b3lyp_cdz
  C   -3.17101427737586     -0.01359456265327     -0.00004666016999
  N   -2.54816381869095      1.19205900896490     -0.00005929844740
  C   -1.22469298840270      1.18630731950424     -0.00005735253328
  C   -0.38920520379151      2.37954752606855     -0.00007462691000
  N   0.93250986793260      2.41497395608697     -0.00007524548284
  C   1.55875296270894      1.20203803736428     -0.00005502736874
  C   0.80566626807201      0.03013895567599     -0.00003959728193
  C   1.64855586232452     -1.10367797818197     -0.00003458327431
  N   2.95502809202421     -0.66802369542473     -0.00005305641524
  C   2.90705505504235      0.67797453933565     -0.00004239543567
  H   3.82771320829788      1.26302557828092     -0.00004981742266
  N   1.12007863128637     -2.33579159553115     -0.00002637366443
  C   -0.22179863853370     -2.39765855181890     -0.00002332887906
  C   -1.11852792589605     -1.28595069617733     -0.00003194164060
  C   -2.53210980604924     -1.24694737800963     -0.00003381156589
  H   -3.10154998444663     -2.17653125911739     -0.00002565239721
  N   -0.52370628364336     -0.02573505939273     -0.00004194758115
  H   -0.66951234580427     -3.39513264673882     -0.00001711322796
  H   -0.93443789380663      3.32711721781865     -0.00008729582760
  H   -4.26396240514799      0.02812153744576     -0.00004832077404
