20
Coordinates from ORCA-job ./opt_b3lyp_cdz
  C   -3.22434311736272     -0.03990962374066      0.00034833346751
  C   -2.54570047627884     -1.25990971788262      0.00025205485169
  C   -1.13975732849055     -1.27826209107877     -0.00000175926898
  C   -0.23499022365816     -2.40464308242401     -0.00024192961027
  N   1.09410652423935     -2.35485387304115     -0.00021441576427
  C   1.63233070195626     -1.11055758803911      0.00009947836577
  C   0.79704923574466      0.00618827171937     -0.00000538420485
  C   1.54733420809510      1.19303492860806      0.00011158707640
  C   2.89716284681580      0.67804935376357      0.00016392564628
  N   2.93953744002015     -0.66791837081046      0.00014619478041
  H   3.81713136616078      1.26266603864019      0.00040031248849
  N   0.90669571905935      2.38904694752571      0.00010073258728
  N   -0.40668212882653      2.39030079354785      0.00010111489824
  C   -1.15731738790155      1.22240647489834      0.00005794079259
  C   -2.55201606551912      1.19462662430711      0.00015170326383
  H   -3.08312275626562      2.14573827739868      0.00025382404948
  N   -0.52855921336687     -0.02628935881737     -0.00005271201895
  H   -0.69447393483795     -3.39770231278516     -0.00024716825492
  H   -3.08746347010829     -2.20626072469200      0.00054289558370
  H   -4.31626196907523     -0.04306426199757      0.00063947507060
