19
Coordinates from ORCA-job ./opt_b3lyp_cdz
  C   -3.14092964213724     -0.01562878006969     -0.00010184938658
  N   -2.51727441869315      1.18562427582293     -0.00007563073881
  C   -1.19366147247285      1.18017804953012     -0.00006044827633
  N   -0.46436111664223      2.35934628638996     -0.00005113225946
  N   0.85212998753418      2.38476027755989     -0.00004582108300
  C   1.52212891811245      1.20694924648090     -0.00003442571300
  C   0.80297832044374      0.01025888410953     -0.00004260048472
  C   1.65736114503397     -1.09534623726749     -0.00008260979943
  N   2.96105738242965     -0.62466665791922     -0.00009639556873
  C   2.89018130517885      0.71465857728838     -0.00004769148129
  H   3.79729866666364      1.31952208322454     -0.00004405203389
  N   1.14116396097073     -2.33959729307672     -0.00012704071401
  C   -0.19541889520112     -2.41708067033060     -0.00013102549285
  C   -1.11009616551722     -1.30961442351505     -0.00010585789263
  C   -2.51905292274853     -1.26282247339099     -0.00012130423556
  H   -3.10197794379473     -2.18366006778950     -0.00014910234648
  N   -0.51876131249448     -0.05122847115601     -0.00006475049149
  H   -0.63166573505604     -3.41974737466148     -0.00016538058261
  H   -4.23399159310959      0.03434534087052     -0.00011066811915
