20
Coordinates from ORCA-job ./opt_b3lyp_cdz
  C   1.44974027792677     -9.76279396394320     -3.78550608422201
  C   0.09647096279320    -10.11019278600847     -3.66589381790773
  C   -0.86810233949314     -9.12975077809188     -3.41415391402130
  C   -2.26552892138355     -9.38200433775182     -3.27624942975627
  C   -3.12011638537018     -8.33374584110341     -3.02895410124731
  N   -2.73111318066422     -7.04977620609200     -2.90280944941052
  C   -1.42661420020217     -6.79109725832170     -3.02837552728444
  C   -0.94462280778695     -5.45664514177253     -2.90681950680298
  N   0.32765553117722     -5.10762351558989     -3.01616120736511
  C   1.22137734720371     -6.06972430749319     -3.25667209434444
  C   0.89080883620338     -7.43159783590757     -3.40061238700905
  C   1.84849325194466     -8.44922667079911     -3.65657432973274
  N   -0.46107640378657     -7.79065425198495     -3.28275733246236
  H   2.19126125739195    -10.54082226750476     -3.98231492641968
  H   -0.23873984277857    -11.14201253414774     -3.76444284927041
  H   -2.62057354358231    -10.40748749864678     -3.37155570100548
  H   -4.19519536732820     -8.51431060621828     -2.92106772927845
  H   -1.69517699311788     -4.68853296261306     -2.71026481889002
  H   2.27175733274254     -5.78299415062047     -3.34714419845765
  H   2.89254518811042     -8.14965708538899     -3.74453059511191
