19
Coordinates from ORCA-job ./opt_b3lyp_cdz
  C   -3.22890905067548     -0.01632025666971      0.00008597147028
  C   -2.56075472622461     -1.25202266253940      0.00006716470320
  C   -1.16282282336542     -1.28119898052564      0.00007802776843
  C   -0.24431544924969     -2.41587529994854     -0.00000215233652
  N   1.07743801444463     -2.36940926782050     -0.00006236114946
  C   1.61108270929628     -1.10966642152720      0.00000525668296
  C   0.77228328179551     -0.01451673773459      0.00015993155482
  C   1.54696731573406      1.14279792780764      0.00001592175624
  N   2.86560965001663      0.72978829457652     -0.00016194025713
  N   2.90115362370660     -0.60940654987905     -0.00017844816291
  N   0.94036169818402      2.35498851879152     -0.00006657537949
  N   -0.37790034798935      2.37229874166955      0.00000871892645
  C   -1.14986230484872      1.22389042604089      0.00009158967711
  N   -0.54955844496533     -0.03331614192964      0.00013757556419
  C   -2.55112800216646      1.20889320403129      0.00008877665785
  H   -3.07664827924752      2.16333747859781      0.00006946263871
  H   -0.70719018946597     -3.40782596490169     -0.00004756389676
  H   -3.11718966454343     -2.18981782833407      0.00003276606231
  H   -4.32073269593576     -0.01123745170519      0.00008301111972
