18
Coordinates from ORCA-job ./opt_b3lyp_cdz
  C   3.14453653179668     -0.00798711654429     -0.00011027657170
  N   2.51606002266221     -1.19772554256836     -0.00009382434624
  C   1.18506536873184     -1.18076640050247     -0.00004611832018
  N   0.53890558508255      0.05956066372101     -0.00000422443294
  C   -0.77938885375915      0.01132338790498      0.00004859541514
  C   -1.52205234069101     -1.15901543207866      0.00003402059969
  N   -2.85831502272484     -0.76732193635447      0.00003856705085
  N   -2.92284553794720      0.56206051976046      0.00004472435460
  C   -1.63580700363603      1.09366573176582      0.00004593402988
  N   -1.12450953975942      2.35373328601462      0.00001328717447
  C   0.20304900679816      2.42966206494636     -0.00001925292742
  C   1.13318768402851      1.31262029626440     -0.00003661390416
  C   2.53277085760750      1.25649613725784     -0.00008960076014
  H   3.12976881674679      2.16822457468067     -0.00011557934671
  H   0.64254998405302      3.43135228737094     -0.00004421890152
  N   -0.88537060756608     -2.35256128502845     -0.00001865385780
  N   0.43684174453868     -2.34215094586871     -0.00004737672173
  H   4.23750114393779     -0.06412682434172     -0.00014685263408
