20
Coordinates from ORCA-job ./opt_b3lyp_cdz
  C   -3.04244307966531     -0.64850807974293     -0.00014248787994
  C   -1.69446243605097     -1.15674957031988     -0.00013000217827
  C   -0.88634718762089      0.00906566507222     -0.00012480944147
  C   -1.63468854489383      1.19615150329396     -0.00014397501072
  C   -3.00642697380114      0.74802478135319     -0.00016772900738
  H   -3.88189314039687      1.39623479616644     -0.00018909222586
  C   -0.84964001336169      2.37385880438067     -0.00013796298853
  N   0.48102247599947      2.36385345853373     -0.00011802704859
  C   1.16323514434557      1.19172404571672     -0.00010099447321
  N   2.49845028563221      1.16922555575389     -0.00008077663409
  N   3.14123431441945     -0.00449958472644     -0.00006436524094
  C   2.48871372654931     -1.16339778195337     -0.00006758994891
  C   1.07957247568486     -1.26916599676148     -0.00008818634293
  N   0.45127105067976     -0.02672349159636     -0.00010466903073
  N   0.36976035881061     -2.41119791937241     -0.00009374126255
  C   -0.97361969695373     -2.36219479038467     -0.00011624771849
  H   -1.47662154416408     -3.33533906749355     -0.00011234537757
  H   3.09074389326276     -2.07391931208571     -0.00005390662826
  H   -1.31107878175051      3.36839265529597     -0.00015325899375
  H   -3.94758394702500     -1.25383858132997     -0.00014496816781
