18
Coordinates from ORCA-job ./opt_b3lyp_cdz
  C   -2.32197848641397      0.59765431997576      0.05663316089786
  N   -3.52080600394048      0.08878028793969      0.12861575909524
  C   -3.63907798565474     -1.27460211033145      0.14851428955906
  C   -2.55028969990211     -2.12080066259265      0.09585435581306
  C   -2.56738989704274     -3.56758811482488      0.11077375714183
  N   -1.50509538231597     -4.31839821949016      0.05868751166127
  N   -0.26590773071662     -3.74775094078755     -0.01596899711189
  C   -0.17239011029398     -2.42625074347070     -0.03397035526010
  C   1.11264732672506     -1.77372506712368     -0.11193391231265
  N   1.28181746156823     -0.47473494082975     -0.13404928013879
  C   0.18341768807743      0.32125903987558     -0.08057095521346
  C   -1.10670229090496     -0.18295878250038     -0.00366114079074
  N   -1.27382079914923     -1.56850310473105      0.01916934210896
  H   -2.22021327732565      1.68776139155699      0.04033136634696
  H   -4.64583502828086     -1.69056840479681      0.20879853219957
  H   -3.53482372593489     -4.07439421428823      0.16963526456128
  H   1.98477812753090     -2.43119888227700     -0.15410643701327
  H   0.33840981397463      1.40149914869625     -0.09977226154420
