21
Coordinates from ORCA-job ./opt_b3lyp_cdz
  C   1.00311451040727      2.43000169896855     -0.00000556731369
  C   1.67777609813682      1.17539982281525     -0.00000727375452
  C   0.85175644038899      0.04014635873598     -0.00000316371734
  C   1.64679734138078     -1.13003097090956     -0.00000146551662
  N   2.96881518778591     -0.76455293213302      0.00000455387610
  C   2.98653036981728      0.58449051782214     -0.00001605225519
  H   3.93816607626541      1.11800530164559     -0.00001981155003
  C   0.93005977098279     -2.33906062666033      0.00000000775141
  N   -0.40931723338505     -2.36683986514562      0.00000319738337
  C   -1.12246037752887     -1.22045347192792      0.00000234455993
  C   -2.53396294627283     -1.16456284448869      0.00000416069613
  N   -3.22992696548416     -0.02931475493433      0.00000240243973
  C   -2.57346683298776      1.14116722327265     -0.00000096495000
  C   -1.17675773403778      1.24893391939384     -0.00000242789603
  N   -0.48984389139435      0.03248520069779     -0.00000101078228
  C   -0.38001196027987      2.44596370029748     -0.00000459669999
  H   -0.92256472177774      3.39238663659050     -0.00000656555378
  H   -3.17616112801708      2.05330538475766     -0.00000169408074
  H   -3.07898001189884     -2.11144549697134      0.00000647767950
  H   1.43558532344883     -3.31050977879539      0.00000606719200
  H   1.55123011655027      3.37545834476876     -0.00000989690795
