20
Coordinates from ORCA-job ./opt_b3lyp_cdz
  C   -1.05213929265064     -2.39744125638226     -0.00005667649545
  C   -1.68744278113250     -1.13288136965487     -0.00003884245856
  C   -0.82848829253254     -0.02987446092091     -0.00001581088184
  C   -1.56907649873949      1.17034995988473     -0.00000127870344
  C   -2.92129480533486      0.68390476131452     -0.00002318970624
  N   -2.98582302995162     -0.66292788499169     -0.00003712813710
  H   -3.83125978920284      1.28375230049170     -0.00002087236995
  N   -0.92790243167574      2.36777652410335      0.00002200104458
  N   0.38230801910387      2.36957264224319      0.00002933614184
  C   1.12391223561186      1.19866759940314      0.00001400909275
  C   2.52003773432065      1.15867143298154      0.00002077055092
  N   3.21838286719904      0.00684126075715      0.00000592238651
  C   2.57349438598435     -1.15681043301470     -0.00001652965041
  C   1.16331976687921     -1.27487179588779     -0.00002612918397
  C   0.34351098017381     -2.44405913286527     -0.00004991957983
  H   0.85785628888355     -3.40591273464505     -0.00006254315944
  N   0.50034568410653     -0.05074353130852     -0.00000935089309
  H   3.17984233257181     -2.06742443061431     -0.00002803406725
  H   3.07185604652570      2.10055692925455      0.00003913757822
  H   -1.62872691804018     -3.32526649484850     -0.00007476440825
