20
Coordinates from ORCA-job ./opt_b3lyp_cdz
  C   -1.06053648717659     -2.41340034779975      0.00012983796246
  C   -1.70906906422767     -1.15630225274002      0.00013288619126
  C   -0.85911149421548     -0.03215690405816      0.00008840847323
  C   -1.62168350101195      1.14809489184153      0.00006762543144
  N   -2.95711940739367      0.80830890656256      0.00005359237321
  C   -3.00938987055395     -0.53452945210615      0.00016794162941
  H   -3.97257407863147     -1.04646488126886      0.00020061323064
  C   -0.86927413502232      2.33779021478857      0.00002989728789
  N   0.46802066986594      2.33308959632603     -0.00000572875142
  C   1.16241478245499      1.17605456816974      0.00000496216873
  N   2.50612059743800      1.18031466935964     -0.00002242278263
  N   3.17008205508238      0.02690543670344     -0.00000555671809
  C   2.53842948945808     -1.14876472449632      0.00003621157231
  C   1.13612581708793     -1.28038677173516      0.00006807403284
  N   0.47927703317257     -0.05953883110439      0.00005589435605
  C   0.33232954115221     -2.45835707588739      0.00010565594642
  H   0.85440488268764     -3.41580381817817      0.00011690512326
  H   3.17471656447076     -2.03648179329910      0.00004289857511
  H   -1.34806531648152      3.32312062157402     -0.00001663961982
  H   -1.62403727425587     -3.35000504225204      0.00016503251770
