19
Coordinates from ORCA-job ./opt_b3lyp_cdz
  C   1.01802084822488      2.44566812135225     -0.00017499839588
  C   1.68450992273772      1.19364170461499     -0.00011826206460
  C   0.83944405095994      0.08050125078786     -0.00005280191783
  C   1.58304268635501     -1.11534846396540      0.00002565009511
  N   2.92257878076308     -0.79156578166399      0.00000159242208
  C   2.98453749091074      0.54818535994222     -0.00006949404470
  H   3.95292449694279      1.05053143378357     -0.00010095697540
  N   0.96071897174824     -2.30542094023256      0.00011641600034
  N   -0.36565048114027     -2.31622460186847      0.00012532622430
  C   -1.10965095113503     -1.16990619735110      0.00005643230387
  N   -2.45260291006374     -1.23173044971031      0.00007622588035
  N   -3.15297428454401     -0.10225740515862      0.00001880675434
  C   -2.56904628456321      1.10348471651842     -0.00005442301487
  C   -1.17399283804676      1.28953120784662     -0.00008468934336
  N   -0.48785532959317      0.08557618968199     -0.00003162241008
  C   -0.37737044280118      2.47556158321263     -0.00015868506535
  H   -0.90519564315847      3.42983101611639     -0.00019950547373
  H   -3.24514468493152      1.96091073695743     -0.00009231677477
  H   1.56724893603495      3.39060135063608     -0.00022588799981
