17
Coordinates from ORCA-job ./opt_b3lyp_cdz
  C   -2.25857681734080      0.49066652621676      0.04269681588011
  N   -3.50655819403415     -0.06765352535246      0.00564039449842
  C   -3.60582093193357     -1.36897774985682     -0.02683977046423
  C   -2.47521321742805     -2.27337803427562     -0.02644007953605
  N   -2.63979941209133     -3.58199746366238     -0.06033748865212
  N   -1.53200138755927     -4.38096671178290     -0.05787389992301
  C   -0.33999527301957     -3.85387900281516     -0.02265649430479
  C   -0.07156764877463     -2.43154192980272      0.01588417194788
  N   1.14565736161641     -1.94376070047681      0.05067808395742
  N   1.30655026443136     -0.57324055926837      0.08601342908862
  C   0.26277723756588      0.19985660286604      0.08422188199278
  C   -1.10829720408748     -0.26633508552869      0.04694918427696
  N   -1.22675810460334     -1.65299021551643      0.01205021200515
  H   -2.19577531790547      1.57975632549440      0.06951396337755
  H   -4.59557973217795     -1.83317621119517     -0.05671925458030
  H   0.52121430037242     -4.52621419624032     -0.02194018141716
  H   0.44413407696956      1.27863193119668      0.11311903185280
