22
Coordinates from ORCA-job ./opt_b3lyp_cdz
  C   -3.15691486469234     -0.02550222892155      0.00005245640389
  C   -2.51966301558435      1.21182452463384      0.00002033013231
  C   -1.11491178332221      1.26085569248183     -0.00002659517116
  N   -0.40064369365376      2.40378751073079     -0.00006219365811
  C   0.94020811855814      2.35997080207080     -0.00010735803046
  C   1.66309803555456      1.16272939306438     -0.00011682202463
  C   0.86983196713275     -0.02014669193736     -0.00007889545608
  C   1.66232550474036     -1.18298870780811     -0.00009852129877
  C   3.02147398055343     -0.69946825550006     -0.00015298865440
  C   3.02305361729523      0.69474678384669     -0.00015784677047
  H   3.90925061974777      1.32770275142424     -0.00019092215550
  H   3.90975968916399     -1.33042118208704     -0.00018108031511
  C   0.96631795713956     -2.41407839888121     -0.00006734713482
  C   -0.42050695214895     -2.41122904741078     -0.00002053546572
  C   -1.19622076904512     -1.21222223445938     -0.00000282813921
  N   -2.53148976042292     -1.21352579123662      0.00004160797009
  N   -0.47977395372586      0.00253008353827     -0.00003544063727
  H   -0.99466918597395     -3.33719369855993      0.00000448092265
  H   1.50120776367243     -3.36741862271612     -0.00008055262755
  H   1.44085699161988      3.33497646731389     -0.00013295168747
  H   -3.06829323942835      2.15220998948515      0.00002956202329
  H   -4.25082973748030     -0.06973276057174      0.00008949487451
