22
Coordinates from ORCA-job ./opt_b3lyp_cdz
  C   -3.21440921296631     -0.00001189333002     -0.00012088769800
  C   -2.53416439226598      1.21928267361791     -0.00009521885195
  C   -1.13335334000240      1.25082705577705     -0.00002155952356
  N   -0.41569219601265      2.40537899993070      0.00000753574270
  C   0.91520396608658      2.37417783670835      0.00007865446887
  C   1.65276732800809      1.17253464071038      0.00012587928182
  C   0.86509424535287     -0.00000211301912      0.00009374509269
  C   1.65277297913908     -1.17253506723936      0.00014648288737
  C   3.01164430589200     -0.69834051866394      0.00022159947149
  C   3.01164093294568      0.69834667151324      0.00019976783507
  H   3.90022538410563      1.32836122582482      0.00023917510079
  H   3.90023180130089     -1.32835077257320      0.00027885326316
  C   0.91521533609996     -2.37418181204837      0.00011614488287
  N   -0.41568067785776     -2.40538936659567      0.00004653137108
  C   -1.13334736471329     -1.25084086960957     -0.00000081484395
  C   -2.53415857547240     -1.21930321062582     -0.00007486272981
  H   -3.05314630812765     -2.17678588381524     -0.00009410478702
  N   -0.48213343011462     -0.00000534831495      0.00002265655394
  H   1.41064920389561     -3.35220333839534      0.00015445999958
  H   1.41063320377474      3.35220170856188      0.00009613579438
  H   -3.05315669198986      2.17676286669224     -0.00013031038374
  H   -4.30656446577821     -0.00001451900595     -0.00017836932777
