17
Coordinates from ORCA-job ./opt_b3lyp_cdz
  C   -2.29468412195941      0.56374528647554      0.04062046063859
  N   -3.51305400411127      0.05161312069640      0.13281301840819
  C   -3.65168285987965     -1.28184156472594      0.18145918965828
  C   -2.56372111861783     -2.16758894390000      0.13934315381963
  N   -2.71353696182483     -3.52511574099694      0.18954087937049
  N   -1.64939184129907     -4.29652167560725      0.14546869982995
  N   -0.42392039768262     -3.82838025155865      0.05400102090268
  C   -0.22116673942634     -2.47781749642897      0.00076058017491
  C   1.05661935154764     -1.90543872276784     -0.09696659946744
  N   1.26400897987673     -0.58106888107804     -0.14967984052039
  C   0.21804704631769      0.23094217177839     -0.10800890707544
  C   -1.12007457273966     -0.23049033026679     -0.00976538354627
  N   -1.29907544404966     -1.60545070589316      0.04267888048526
  H   -2.19216479842639      1.65143074763444      0.00165925122165
  H   -4.65355806136272     -1.70690653171946      0.25734469317510
  H   1.91570759584821     -2.57700438616427     -0.13101434426374
  H   0.39736794778918      1.30845390452256     -0.15154475281149
