20
Coordinates from ORCA-job ./opt_b3lyp_cdz
  C   3.20179648700773      0.12888337525877      0.00015078855195
  C   2.46639099585373      1.31208199083337      0.00013900432100
  C   1.06114475792907      1.25804873071359      0.00010055542718
  N   0.25930160485402      2.36995550194059      0.00008708644769
  N   -1.06282557851996      2.29821161983041      0.00005150836824
  C   -1.62299531577427      1.07506502050235      0.00002614012349
  C   -0.81627751266684     -0.07816438873335      0.00003816566332
  C   -1.59765611901523     -1.23174262585248      0.00000986417768
  C   -2.93194965458230     -0.66166361505365     -0.00004062398784
  N   -2.94398624795234      0.67964169451544     -0.00000453472571
  H   -3.87154459132202     -1.21600396626696     -0.00007285124816
  C   -0.82717116326711     -2.42849381091280      0.00003541339919
  N   0.50135586996190     -2.42385781166601      0.00006681356120
  C   1.20612614749031     -1.25071659626776      0.00008842018078
  C   2.59640967942157     -1.14136345963595      0.00012654497209
  H   3.18244423170674     -2.05937822231107      0.00013775178596
  N   0.51297377518681     -0.02797870044747      0.00007661072546
  H   -1.29329108013879     -3.42052926185656      0.00000805253790
  H   2.93700237623539      2.29439508442266      0.00015846908113
  H   4.29234394249160      0.18708918188689      0.00018083673744
