22
Coordinates from ORCA-job ./opt_b3lyp_cdz
  C   -3.00588698264733     -0.71180445625838     -0.00014855985937
  C   -1.66488538860475     -1.20756562544544     -0.00010977402972
  C   -0.85694343052823     -0.04008219707079     -0.00007408491983
  C   -1.64151767793836      1.14871253762085     -0.00008804894593
  C   -2.99247272643062      0.69649694390771     -0.00013262341059
  H   -3.86924826891044      1.34195426466152     -0.00015318205691
  N   -1.05218804115590      2.37199467805755     -0.00005927081279
  C   0.27080896918967      2.38060497622864     -0.00001837218785
  C   1.12163417250014      1.22027147367486     -0.00000213418507
  C   2.52319211279831      1.19115250355226      0.00004056802978
  N   3.24412500174845      0.06249489306027      0.00005273865237
  C   2.59318211719121     -1.10393500174253      0.00002255493551
  C   1.19061823402028     -1.23181121521755     -0.00002153748840
  N   0.48110318315498     -0.02422151018119     -0.00003265443851
  C   0.42309524813412     -2.43458839524154     -0.00005579913784
  C   -0.96666214096809     -2.43703571609736     -0.00009882125587
  H   -1.50014178099054     -3.39119329357459     -0.00012422857054
  H   0.97901061012954     -3.37301680344094     -0.00004714846663
  H   3.19825889981379     -2.01526042849564      0.00003308102827
  H   3.07001446617659      2.13820867624204      0.00006547933185
  H   0.76999223341555      3.35452288497480      0.00000570142568
  H   -3.90321672689836     -1.32954517721453     -0.00018305153762
