21
Coordinates from ORCA-job ./opt_b3lyp_cdz
  C   3.16244894066067      0.01631345788330     -0.00008742666068
  N   2.55587971778435     -1.18914942726033     -0.00008893370713
  C   1.22649383109383     -1.20663146796560     -0.00009939658776
  C   0.45057427432505     -2.41637100299023     -0.00010484850824
  C   -0.93374957168006     -2.43309768861514     -0.00011681437420
  C   -1.63666477057157     -1.19782089389151     -0.00012083055532
  C   -0.84348858958779     -0.04607264414780     -0.00011624412025
  C   -1.66832418862080      1.10297676650950     -0.00013185025107
  N   -2.98847390410577      0.70228584921420     -0.00015040861460
  C   -2.96878774677109     -0.63864736180207     -0.00013446219785
  H   -3.90411086469996     -1.20095386267124     -0.00014194463995
  C   -0.98848163881818      2.32423209070217     -0.00013288334994
  N   0.35676864551847      2.39115919437345     -0.00012108299695
  C   1.10037490475478      1.27120131957772     -0.00010880756864
  C   2.51057797002517      1.24268823596793     -0.00009718337783
  H   3.04872872047438      2.18919932362528     -0.00009687647538
  N   0.50138677519961     -0.00159813715408     -0.00010706095595
  H   -1.51810393328773      3.28265647409573     -0.00014764685026
  H   -1.45821035114623     -3.39209220255890     -0.00011990455901
  H   1.03194857621628     -3.33804571383746     -0.00009897636709
  H   4.25651383103658     -0.01234156885492     -0.00007830478187
