20
Coordinates from ORCA-job ./opt_b3lyp_cdz
  C   -3.13409669201797     -0.02505217703914     -0.00001547807631
  N   -2.52890195146914      1.18224099649343     -0.00001354666472
  C   -1.20372292197217      1.20521407180217     -0.00000364344967
  N   -0.50726071630077      2.37684284605790     -0.00000302891369
  C   0.82180583928368      2.39048020304000      0.00000441817180
  C   1.60224992656213      1.20733813699516      0.00001650074128
  C   0.84357692985917      0.03307945221144      0.00001331963288
  C   1.68475815865696     -1.09318241997614      0.00002102253373
  N   2.99880902704680     -0.65698590666962      0.00002571257943
  C   2.95187708590276      0.68109684845089      0.00003578162648
  H   3.87484878189242      1.26272541229287      0.00004292221176
  C   1.01531300595095     -2.32564501887130      0.00001912266901
  N   -0.32745686650023     -2.40565919318034      0.00000924708359
  C   -1.08539944272709     -1.29182026602286      0.00000180886928
  N   -0.49505926286659     -0.01876846704000      0.00000363846427
  C   -2.49385594834622     -1.25896251630769     -0.00000837933676
  H   -3.04220429473221     -2.19955203866280     -0.00001046657584
  H   1.55343217479473     -3.27935101073457      0.00002254348719
  H   1.28023619847948      3.38659976920039      0.00000966825948
  H   -4.22821983679669      0.00824289376021     -0.00002371051320
