20
Coordinates from ORCA-job ./opt_b3lyp_cdz
  C   -3.15209032503963     -0.04797516994115     -0.00003677759066
  N   -2.50832955241005     -1.23990192340372     -0.00003920240727
  C   -1.18449276746808     -1.20365431542370     -0.00004753098148
  C   -0.32936425778820     -2.38279846900280     -0.00005659078450
  N   0.99064335897869     -2.39275916530051     -0.00006730875542
  C   1.59436524779135     -1.16648620392128     -0.00006694942632
  C   0.82529211290596     -0.00532876241141     -0.00005963017626
  C   1.65118566804574      1.13565227979465     -0.00007562356853
  N   2.96959320005525      0.71324892028828     -0.00010312117237
  C   2.93795849780207     -0.62966147944745     -0.00007303155998
  H   3.86488535236699     -1.20476520527449     -0.00008137644883
  C   0.95671578801419      2.34980834281097     -0.00007617810441
  N   -0.39536756429461      2.40272140921269     -0.00006605688762
  C   -1.13041683028275      1.28012464574130     -0.00005457661508
  C   -2.54165179743003      1.20109870115564     -0.00004450971343
  H   -3.11787738593006      2.12527307605599     -0.00004392993793
  N   -0.51097237404572      0.02045152762973     -0.00005217382546
  H   1.47030191210453      3.31677076487897     -0.00009622596372
  H   -0.85761312126131     -3.34009578949993     -0.00005366249422
  H   -4.24428648831430     -0.11059094654178     -0.00002924038652
