20
Coordinates from ORCA-job ./opt_b3lyp_cdz
  C   -3.16661839621273     -0.04173121459738      0.00001766023353
  N   -2.53917393894710     -1.23036141437614      0.00001400779414
  C   -1.20506194574315     -1.22152831047985      0.00000788730035
  C   -0.39225128364874     -2.40619789269917      0.00000317715813
  C   0.99632245473956     -2.38803112401574     -0.00000326875965
  C   1.64809092560154     -1.12622634460006     -0.00000559860459
  C   0.81825435828437     -0.01243644533705     -0.00000068467153
  C   1.63577560913028      1.12397211447975     -0.00000420674399
  N   2.94328476669790      0.67871816850164     -0.00000733013234
  N   2.94919980888291     -0.65288541023830     -0.00001357838441
  C   0.94000420269553      2.34929898738403     -0.00000163736840
  N   -0.39836330080202      2.39664056880725      0.00000545415166
  C   -1.13872245003598      1.26130708901334      0.00000890327297
  C   -2.54063731586348      1.20732197097692      0.00001546581024
  H   -3.10411342561374      2.13892198883892      0.00001847392146
  N   -0.52078240823846      0.00227689575213      0.00000549901878
  H   1.45500314583601      3.31586377367407     -0.00000207945519
  H   1.55739410810849     -3.32529788955109     -0.00000730377895
  H   -0.94543685662405     -3.34517207957416      0.00000462040183
  H   -4.25998971604716     -0.09108291155912      0.00002275383594
