19
Coordinates from ORCA-job ./opt_b3lyp_cdz
  C   -3.13846818820907     -0.02752741966468     -0.00001185696674
  N   -2.51465072768522     -1.21984000921100     -0.00002885377498
  C   -1.18426551921168     -1.21734006375548     -0.00002559007826
  N   -0.45553692091185     -2.36625755739142     -0.00005142847102
  C   0.87711934123468     -2.35394076408663     -0.00006541326999
  C   1.61100871356703     -1.14048402507698     -0.00002054120450
  C   0.81859887094950     -0.00238028557232     -0.00000469471993
  C   1.65470335199927      1.11107761667017      0.00001857795861
  N   2.95533388408325      0.62521735139138     -0.00008379775976
  N   2.92958998338896     -0.70193207353152      0.00007787735601
  C   0.97196954960437      2.34852882506370      0.00007069818212
  N   -0.36502302180081      2.41148929999279      0.00004768415668
  C   -1.12162503373527      1.28449456351465      0.00001561647402
  N   -0.51531094537709      0.02323468695194     -0.00000538278797
  C   -2.52268976408926      1.22760794732955      0.00000989877791
  H   -3.09509608169084      2.15370886642339      0.00002600383056
  H   1.49738466205633      3.30940829007485      0.00004035553659
  H   1.36691088457279     -3.33397947780457     -0.00003658556827
  H   -4.23192387384509     -0.07958284711782     -0.00001725487110
