19
Coordinates from ORCA-job ./opt_b3lyp_cdz
  C   -3.15456373356768     -0.10158683251950     -0.00027487397354
  N   -2.49186842219118     -1.27647408649270     -0.00016535839544
  C   -1.16427421256135     -1.21605643985438     -0.00003779188405
  C   -0.27391683124444     -2.36873947857381      0.00009134404499
  N   1.04911833261603     -2.34434964047904      0.00021841780271
  C   1.60588745730316     -1.10017530089988      0.00022697706439
  C   0.80112872105254      0.02726104079950      0.00010841013246
  C   1.61975786551782      1.15459226728341      0.00014084014228
  N   2.92620626545529      0.68286378881374      0.00029099250090
  N   2.91422700021308     -0.65002841592101      0.00033317858716
  C   0.91004952814376      2.37356933247169      0.00001769268174
  N   -0.43410811159496      2.40814448184373     -0.00011109467772
  C   -1.16662567103934      1.27033651015511     -0.00013467013247
  C   -2.56869610795379      1.16835166331239     -0.00026730008967
  H   -3.16783677162596      2.07777448464677     -0.00036207445045
  N   -0.52923206732521      0.02419329705470     -0.00002246683197
  H   1.41001102907456      3.34792753358426      0.00003021623622
  H   -0.77319427072670     -3.34148038390071      0.00007855976726
  H   -4.24555494484561     -0.18331028462429     -0.00037801162483
