19
Coordinates from ORCA-job ./opt_b3lyp_cdz
  C   3.20898354992039      0.07347374290369      0.00007261906752
  C   2.49632961057447      1.28031824298185      0.00008677209122
  C   1.09859227460377      1.24856788314509      0.00007006866242
  N   0.29323891011409      2.37891530919747      0.00008522996923
  N   -1.01760769356942      2.32289675757659      0.00006890040606
  C   -1.59080062976614      1.09007253991132      0.00003662246991
  C   -0.79161364749449     -0.04758747747447      0.00002447154615
  C   -1.60852053915879     -1.16316045670412     -0.00001154417520
  N   -2.91449993145823     -0.68102005977977      0.00003381592466
  N   -2.90225895643575      0.65113992207937     -0.00004205291722
  C   -0.88747355055778     -2.38909986180410     -0.00004963967547
  N   0.44634453706351     -2.41257879774589     -0.00002078302733
  C   1.18498670826815     -1.26507071776340      0.00001940350607
  C   2.58385116854742     -1.18152586562808      0.00004011974019
  H   3.15509400744749     -2.10903952221884      0.00002679990724
  N   0.53421887913512     -0.02537222756006      0.00003816511348
  H   -1.38425194281825     -3.36518933618730     -0.00005025713344
  H   2.99199834724289      2.25028209232306      0.00011230961409
  H   4.30033428424153      0.11137682014758      0.00008679431041
