18
Coordinates from ORCA-job ./opt_b3lyp_cdz
  C   3.12327789515756      0.09781689135677     -0.00007557700213
  N   2.46012916054438      1.27063070615199     -0.00008737110574
  C   1.13330839197615      1.20821248318215     -0.00005980033153
  N   0.35013928230120      2.35230000584203     -0.00006075836026
  N   -0.96520047207831      2.32090322396074     -0.00002755979593
  C   -1.56837206334345      1.10558765752715      0.00000127072536
  C   -0.79891085517656     -0.04582374686620     -0.00000321039724
  C   -1.63218124232141     -1.14946495330512      0.00005212714405
  N   -2.93513568597097     -0.63678709063004      0.00006502649879
  N   -2.89607130230696      0.68742170420503      0.00007144180023
  C   -0.93213924120359     -2.38081753743156      0.00008339860402
  N   0.40895763822120     -2.42743430749879      0.00004810684222
  C   1.15700899584715     -1.29525345880987     -0.00000307085322
  C   2.55538846305764     -1.18434266041834     -0.00003331600430
  H   3.16904967717705     -2.08381834077639     -0.00002114039525
  N   0.52434475207638     -0.04851427828985     -0.00002635863994
  H   -1.44111863232351     -3.35040627591916      0.00011781717314
  H   4.21400006396604      0.18752082461947     -0.00010055870226
