21
Coordinates from ORCA-job ./opt_b3lyp_cdz
  C   3.03939975472207      0.64019951861924      0.00015037811791
  C   1.70849867966687      1.17742329900762      0.00010760769766
  C   0.86774492474164      0.02626367803153      0.00007192047151
  C   1.60567123982913     -1.17628413978643      0.00009000088725
  C   2.97814101705892     -0.76135189272237      0.00013887940404
  H   3.83402980873707     -1.43466090750569      0.00016389284331
  N   0.97476568039356     -2.38013770322444      0.00006144751059
  C   -0.34714442647931     -2.35052369626238      0.00001669899975
  C   -1.16422597850722     -1.15960523916128     -0.00000394542263
  N   -2.49581363766531     -1.19437713919153     -0.00004888582428
  N   -3.18541708181692     -0.04225264059103     -0.00006515530125
  C   -2.55269492438543      1.12504503932993     -0.00003700169314
  C   -1.14286827432672      1.27394959633156      0.00001124506785
  N   -0.46889554412521      0.05695878600351      0.00002670851142
  C   -0.35863505207158      2.45001555277113      0.00004477375594
  C   1.04352879299279      2.41403414244637      0.00009221776236
  H   1.59775571699586      3.35635603568483      0.00011670059252
  H   -0.88572685899765      3.40464271008462      0.00003265780652
  H   -3.18737747467824      2.01482263705323     -0.00005294337880
  H   -0.89407149185275     -3.29662323640815     -0.00000760506606
  H   3.95538365936842      1.22918477508972      0.00018576595750
