16
Coordinates from ORCA-job ./opt_b3lyp_cdz
  C   -2.36909068995519      0.57676976590472     -0.01543097995397
  N   -3.55228302345125     -0.08038815929153     -0.02107399085707
  C   -3.54973884726666     -1.39657550654285     -0.01805175787365
  C   -2.35287600302973     -2.18413654675335     -0.00902102171884
  N   -2.36378578614273     -3.51773397021372     -0.00603068867507
  N   -1.18315263284866     -4.17169997923897      0.00254260077836
  N   -0.04076752360266     -3.57229917256778      0.00804029109485
  C   0.03107421964915     -2.18609660501382      0.00534243949402
  N   1.20875350285610     -1.60370640521239      0.01113389148103
  N   1.26922684817294     -0.23567461373201      0.00839708556922
  C   0.17689012638139      0.47609803544725      0.00017104309887
  C   -1.14895654925494     -0.08615625255366     -0.00655838771607
  N   -1.16856869910702     -1.47116369435777     -0.00351533945708
  H   -2.39466681255012      1.66815215599352     -0.01807371177820
  H   -4.50047897921220     -1.93517455130173     -0.02256649305614
  H   0.29078084936158      1.56383549943408     -0.00161498043027
