20
Coordinates from ORCA-job ./opt_b3lyp_cdz
  C   -3.01584611062685     -0.69293091127458      0.00005846456286
  C   -1.66540857638339     -1.19248998499823      0.00003224852617
  C   -0.86862482717502     -0.01393436548819      0.00002164787072
  C   -1.62535912613057      1.16464933237558      0.00003542504419
  C   -2.99151627498894      0.70809105006751      0.00005279771070
  H   -3.86757230492793      1.35510001012138      0.00006543508142
  N   -1.00760954093068      2.37990760806312      0.00002867710733
  C   0.31480904699966      2.36969916610009      0.00000865677236
  C   1.14970916772806      1.18779981952924     -0.00000662566379
  N   2.48169329220336      1.21463346170194     -0.00002657899338
  N   3.15917698108103      0.05780902518186     -0.00003892858725
  C   2.52796666087688     -1.11495084555369     -0.00003154756809
  C   1.11883261268822     -1.25928463590157     -0.00001053481993
  N   0.46442269765944     -0.02880674224555      0.00000137530729
  N   0.42731389871200     -2.40772073132678     -0.00000231568953
  C   -0.92359923770517     -2.38099552672175      0.00001778480089
  H   -1.40570418713754     -3.36448300307455      0.00002590520312
  H   3.15153793731192     -2.01109923228205     -0.00004274736267
  H   0.84544143084257      3.32520871185173      0.00000220298314
  H   -3.91675320609703     -1.30434679202553      0.00007442211445
