19
Coordinates from ORCA-job ./opt_b3lyp_cdz
  C   2.99044130291949      0.70173653026792     -0.00007761623899
  C   1.62974137438968      1.18206949342652     -0.00003894160309
  C   0.85869030066119     -0.00000698659269     -0.00002232893048
  C   1.62973690400140     -1.18208628214069     -0.00005518694332
  C   2.99043864274212     -0.70175840061761     -0.00010428910128
  H   3.87829653788626     -1.33198741108066     -0.00014282143030
  N   1.01477001237497     -2.38267589957731     -0.00004142978872
  C   -0.32463335497811     -2.37801983174894      0.00000274073468
  C   -1.14636717869783     -1.20641453383885      0.00003580873463
  N   -2.49213002475243     -1.17010457161531      0.00007996959340
  N   -3.12407211155674      0.00000065401581      0.00010757429667
  N   -2.49212559035760      1.17010328465614      0.00009427541164
  C   -1.14636250606860      1.20640818144530      0.00005085968214
  N   -0.46284094086714     -0.00000447232268      0.00002089030420
  C   -0.32462440157030      2.37801033905821      0.00003082098068
  N   1.01477903372515      2.38266136538488     -0.00001203547272
  H   -0.84206591554660      3.33974599760850      0.00005425837941
  H   -0.84207854169391     -3.33975352479972      0.00001337548779
  H   3.87830155438900      1.33196221687118     -0.00009632179636
