20
Coordinates from ORCA-job ./opt_b3lyp_cdz
  C   -3.11832357398132     -0.05658946671355      0.00003902537720
  N   -2.53920053639569      1.16107485053327      0.00010498077898
  C   -1.21177002050525      1.21447480315740      0.00011732664873
  N   -0.52571869148773      2.38363248058215      0.00018562203666
  C   0.80878623943597      2.40273366540016      0.00019612172254
  C   1.59928521992699      1.23026682171171      0.00013467988308
  C   0.84603592570510      0.05520539087862      0.00006603750713
  C   1.63971013465192     -1.11996480804651      0.00002119189195
  N   1.05833723335140     -2.32903061762767     -0.00003581503860
  N   -0.26901122818849     -2.39797921527460     -0.00005190602376
  C   -1.04895477816085     -1.27863113510741     -0.00000648403634
  N   -0.48370308915880     -0.00055584899344      0.00005715218830
  C   -2.45348389085079     -1.28151474050183     -0.00001631553603
  H   -2.98074514176288     -2.23403777443365     -0.00006570655836
  C   3.00018065390169     -0.63181473578684      0.00006241566561
  C   2.97531824684201      0.76080975468241      0.00013302283151
  H   3.85631920077315      1.40144385678910      0.00017644731246
  H   3.89208823362284     -1.25531200150142      0.00004317674479
  H   1.26089130388688      3.40152319097789      0.00025835059653
  H   -4.21295070640609     -0.04608359662580      0.00003072340763
