19
Coordinates from ORCA-job ./opt_b3lyp_cdz
  C   -3.10668156476486      0.02134979770398     -0.00007114241234
  N   -2.48656658653757      1.21896548700097     -0.00007740172265
  C   -1.15854524281682      1.21263731904729     -0.00004919220636
  N   -0.41903950741822      2.37264535889406     -0.00005073405922
  N   0.90261313887997      2.37496340731892     -0.00002187958925
  C   1.55953964245312      1.19178305241450      0.00000891382831
  C   0.82527431231987      0.00512710545604      0.00001058011016
  C   1.61386167377223     -1.16084923599450      0.00004909158335
  N   1.01345348246177     -2.36420044604672      0.00005853264796
  N   -0.31747948734441     -2.41588902215512      0.00003007377164
  C   -1.08817252990872     -1.28848345865115     -0.00000650585018
  N   -0.49290729648879     -0.02491326860396     -0.00001600311346
  C   -2.49091639339681     -1.23474289721417     -0.00003714791484
  H   -3.06292747375205     -2.16120480235627     -0.00003349071229
  C   2.97462462404597     -0.65306691001417      0.00007354075456
  C   2.94266885438561      0.74118626535369      0.00004799236638
  H   3.81426134467617      1.39350450240753      0.00005723780071
  H   3.87381126170712     -1.26638258073310      0.00010545220060
  H   -4.20001075797361      0.07104023267219     -0.00009538958308
