20
Coordinates from ORCA-job ./opt_b3lyp_cdz
  C   -3.15073180420831      0.00024834865709      0.00001000106743
  N   -2.55701153770137      1.20202376197837     -0.00000422661668
  C   -1.21709904610153      1.22870586082965     -0.00000215316450
  C   -0.41873995685569      2.41377630366837     -0.00001777776071
  C   0.97753725857824      2.40356366832504     -0.00001790650979
  C   1.64517179066027      1.15708784668283      0.00000280461971
  C   0.82220921229282      0.03871543212604      0.00002324514889
  C   1.59465728915899     -1.14435223904849      0.00002779257042
  N   0.99549198840978     -2.34796324375175      0.00003580244258
  N   -0.32723268962538     -2.39121379941140      0.00003813520832
  C   -1.09607801199675     -1.24983163552172      0.00002725865818
  N   -0.51063494512873      0.01748608762469      0.00001802802051
  C   -2.49451191571370     -1.23880387904320      0.00002554900059
  H   -3.03313926764680     -2.18487076636874      0.00003441331247
  C   2.94400062864351     -0.61790411571032     -0.00002228618469
  N   2.96836125595426      0.71938174223215      0.00000818064312
  H   3.86830581725735     -1.19576487066239     -0.00003303770361
  H   1.52824087684298      3.34710754707256     -0.00003122272947
  H   -0.97340955157346      3.35171053638223     -0.00002838553991
  H   -4.24529008944646      0.02070564923899      0.00000864351716
