19
Coordinates from ORCA-job ./opt_b3lyp_cdz
  C   -3.13967671801586     -0.05485517940634      0.00001356588522
  N   -2.51365290783952     -1.24420296400894     -0.00003132535707
  C   -1.17776248817614     -1.22316530694604     -0.00005205022738
  C   -0.30595281530993     -2.37621833756019     -0.00007859851667
  N   1.02658483080096     -2.36106817993213     -0.00007802113134
  C   1.60156839356870     -1.13491245364445     -0.00006851668879
  C   0.80572205495887     -0.00026580202401     -0.00006454695151
  C   1.58073341608900      1.17287389692021      0.00000045808839
  N   0.97022179006160      2.37229083183397      0.00008194931289
  N   -0.35789557085396      2.40580069941138      0.00008363307008
  C   -1.12144853332752      1.26200081550746      0.00002996808760
  C   -2.52075904555446      1.20572692166030      0.00004942575668
  H   -3.09410949707683      2.13145133124833      0.00009667309454
  N   -0.51787553223283      0.00563579646989     -0.00003744379148
  C   2.92615489408245      0.61715535525699      0.00000911453220
  N   2.93011913292336     -0.72162153576540     -0.00002139103884
  H   3.86084980753369      1.17815827689983      0.00004598786683
  H   -0.80685194504803     -3.34759525507328     -0.00008862945318
  H   -4.23290116548358     -0.10509714484754      0.00002644686184
