21
Coordinates from ORCA-job ./opt_b3lyp_cdz
  C   -3.01192350498154     -0.66992001508436     -0.00001443818079
  C   -1.67315531133164     -1.20377349856493     -0.00005333187523
  C   -0.85447486759344     -0.06425364282699     -0.00002680217511
  C   -1.60221085189589      1.15007212126992      0.00002717950339
  C   -2.97167804033868      0.73139707010184      0.00003631072448
  H   -3.83341519670535      1.39594696941326      0.00007441670447
  N   -0.97576520523397      2.34253869760669      0.00005721208411
  N   0.34442445102103      2.36082804194041      0.00003589448597
  C   1.08442747522096      1.20881327543967     -0.00001598972450
  C   2.49014670524294      1.19348169437113     -0.00004040077765
  N   3.21347850162378      0.06895988855509     -0.00009164251435
  C   2.58575919583916     -1.11278936482903     -0.00012201793365
  C   1.18727651346189     -1.25699780843567     -0.00010328284005
  C   0.40459352594693     -2.45548964514712     -0.00013204269584
  C   -0.98355587785292     -2.44576514195296     -0.00010844005474
  H   -1.52426288094725     -3.39552039614292     -0.00013324418686
  H   0.94966813344717     -3.40030875981237     -0.00017458412531
  N   0.47825073403259     -0.05290354739121     -0.00004915674946
  H   3.20885294880481     -2.01154046546741     -0.00016380142224
  H   3.01306547858020      2.15227765353671     -0.00001617762671
  H   -3.92314331804076     -1.26727825027975     -0.00002109701991
