19
Coordinates from ORCA-job ./opt_b3lyp_cdz
  C   -3.12138694258697     -0.10532316029073      0.00004731219213
  N   -2.56500052634406      1.13076580881186      0.00001982108217
  C   -1.24451967681795      1.20452174523240      0.00001439740459
  N   -0.50300194272451      0.00243817174707      0.00003922068182
  C   0.82154880581211      0.08403280458969      0.00004058227306
  C   1.64953342755444     -1.05769144023799      0.00003426577773
  N   2.96723785649366     -0.63149934793790     -0.00000766024595
  C   2.92484572675716      0.70401072954408      0.00003755104794
  C   1.57112226578854      1.25048709821036      0.00000609078828
  C   0.76654240991196      2.42438448279995     -0.00005999669695
  N   -0.56301846225288      2.38684000010912     -0.00003788896987
  H   1.20529075775938      3.42906896783066     -0.00007195595591
  H   3.85154557346626      1.27998645173182      0.00001873949763
  N   1.11476573683419     -2.28287702401341      0.00004060275906
  N   -0.21787457808126     -2.38201735394234      0.00005819037269
  C   -1.02866902787642     -1.28985427406208      0.00005525154033
  C   -2.43828184132637     -1.31676114296712      0.00006343791646
  H   -2.95216070461134     -2.27666234623653      0.00007913674843
  H   -4.21563113625594     -0.11335312311895      0.00005392328636
