19
Coordinates from ORCA-job ./opt_b3lyp_cdz
  C   -3.01642032815823     -0.66868877760993      0.00004968039443
  C   -1.66828452256500     -1.19748460007509      0.00002366062744
  C   -0.86387779513346     -0.04069955240044      0.00001288663268
  C   -1.59427284851633      1.15738455914887      0.00001318998497
  C   -2.97322167299927      0.72821543447422      0.00001128671135
  H   -3.83813758563766      1.38922584077172      0.00000570290158
  N   -0.94190355557117      2.34517010008864      0.00000603947844
  N   0.37425908653294      2.35220934742034     -0.00000181152541
  C   1.11144459234962      1.18920282729990     -0.00000285371995
  N   2.44557638634124      1.22576679532843     -0.00000863723191
  N   3.12712533552547      0.07455389048657     -0.00000677037164
  C   2.52297119468553     -1.11526492675113      0.00000014154416
  C   1.11958927371823     -1.27740878480560      0.00000646123153
  N   0.41909009588320     -2.42539573974290      0.00001206084544
  C   -0.92758323722808     -2.39503175586647      0.00001651463590
  H   -1.41339219258663     -3.37666994472028      0.00003243204124
  N   0.46219324665183     -0.05079400544035      0.00000461939540
  H   3.16807180651606     -1.99574478752602      0.00000036528112
  H   -3.92763969210828     -1.26491526858048      0.00007085814320
