17
Coordinates from ORCA-job ./opt_b3lyp_cdz
  C   -2.97744152649482     -0.69769680127725     -0.00007418744400
  C   -1.60230305111690     -1.18109879442835     -0.00004609802683
  C   -0.85288542049868      0.00001889178057     -0.00003256235479
  C   -1.60225054471464      1.18116979402806     -0.00004968370845
  C   -2.97741050435888      0.69782887409500     -0.00007764638945
  H   -3.86549111314533      1.32739356535685     -0.00009714217006
  N   -0.95560067725458      2.36383839126653     -0.00003830127280
  N   0.38008378201494      2.37452876539611     -0.00001115006403
  C   1.10727301142735      1.22325310097852      0.00000524467682
  N   2.45154132494108      1.18168672106646      0.00003252605539
  N   3.06767137823195     -0.00006829945928      0.00004680222029
  N   2.45148882790754     -1.18179575438691      0.00003605570633
  C   1.10721854459911     -1.22330244936712      0.00000883178200
  N   0.45714836117364     -0.00001022959944     -0.00000609767494
  N   0.37997829165752     -2.37454571147609     -0.00000442322479
  N   -0.95570578060778     -2.36379606534437     -0.00003153722363
  H   -3.86555008016151     -1.32722206142931     -0.00009089698708
