16
Coordinates from ORCA-job ./opt_b3lyp_cdz
  C   -2.46180215838614      0.57118814459341      0.00618876243783
  N   -3.60068478714904     -0.07416688361967     -0.00017523744083
  N   -3.62334747255125     -1.43284306712104     -0.00567907582224
  C   -2.47050175134805     -2.08601203651646     -0.00446162685657
  C   -2.38173408665428     -3.51990899166320     -0.00989992779362
  N   -1.25138329543680     -4.18029762243698     -0.00878890807282
  N   -0.06154014058412     -3.53022308597645     -0.00224345847110
  C   -0.05264186655730     -2.20891222358840      0.00306943954821
  N   1.17041694854944     -1.55791020471939      0.00973536827385
  N   1.21641010316625     -0.26288893714379      0.01507094913846
  C   0.08718423396412      0.49156101801368      0.01433512253755
  C   -1.17771936349275     -0.07529322467955      0.00786884069768
  N   -1.23472530922018     -1.45358810325685      0.00216633377389
  H   -2.50795045686889      1.66318440883945      0.01040024116265
  H   -3.31311327939379     -4.09005392005774     -0.01527071135431
  H   0.22256268196280      1.57316472933298      0.01911388824137
