112
Coordinates from ORCA-job ./opt_b3lyp_cdz
  C   -9.50186181183080     -5.56862328942069      1.77325984856273
  C   -8.34410238604105     -5.17897044993154      2.45522596125892
  C   -7.08597938220950     -5.36222101797205      1.87818679034337
  C   -6.97224888881820     -5.92454201334624      0.59497926265580
  N   -5.68998598913672     -6.11951370088152     -0.00134035413417
  C   -5.40090004620282     -7.38269070030693     -0.60048237582759
  C   -5.69962747039204     -8.57366054586356      0.08249546011137
  C   -5.43608237835751     -9.80943071067178     -0.51201113407912
  C   -4.85935645779846     -9.87631960673442     -1.78452742448044
  C   -4.55615394458985     -8.69141504451334     -2.46380006744294
  C   -4.83174795521891     -7.45159639589670     -1.88384947174466
  H   -4.60639934010078     -6.52881953471609     -2.42161372280047
  H   -4.11282432029395     -8.72977133965364     -3.46186848375392
  H   -4.64866986999218    -10.84447933451640     -2.24419083321728
  H   -5.67349483729710    -10.72752175273644      0.03106313698792
  H   -6.14063818811433     -8.52375886935315      1.07972901547499
  C   -4.73094615165613     -5.08771915632163      0.00011835092125
  C   -3.35062922411233     -5.38399532457313      0.05660891476608
  C   -2.40792953285250     -4.36446385730391      0.05383311797738
  C   -2.80136425421509     -3.01272891094574      0.00158898495908
  C   -1.79913838077046     -1.93488455740274      0.00165539120618
  N   -0.50478871315365     -2.30814213315075      0.04238007299329
  C   0.41368214230393     -1.34297640840274      0.04413130225714
  N   1.71514617818611     -1.62516491734122      0.08530484953501
  C   2.57656214417106     -0.58869105028851      0.08632320747065
  N   2.25340168325113      0.71906420193807      0.04582179785549
  C   0.95897706937223      1.03138665210510     -0.00035918761900
  N   0.55348018659865      2.29964162105506     -0.04736124317772
  C   -0.77436112225321      2.52701051404438     -0.08658232300893
  N   -1.74553662181864      1.59259201751558     -0.08369751174570
  C   -1.36957190164785      0.31508977709925     -0.04207590628407
  N   0.00104668819730      0.00117526922873      0.00052935725041
  N   -2.26544769143873     -0.67106789156998     -0.03919029257291
  C   -1.20617861200219      3.93314172152141     -0.13715721321996
  C   -0.26223601668358      4.97891506176765     -0.13247312527501
  C   -0.66585042229315      6.30678055678668     -0.17735911502535
  C   -2.03761409373802      6.64013280638287     -0.23560504791781
  N   -2.45109526781907      7.98587048102285     -0.28477349680403
  C   -3.68557152137135      8.39120995337928      0.30671229913727
  C   -4.02073156408647      7.98549776231037      1.61008343600315
  C   -5.22844654571236      8.38969083976122      2.18234892803263
  C   -6.10819580484262      9.21589885942145      1.47470991168476
  C   -5.77090405854613      9.62964682364098      0.18185749725749
  C   -4.57278472585730      9.21648599991080     -0.40450499003474
  H   -4.31599762970062      9.53253696651366     -1.41722777699182
  H   -6.45141515159765     10.27132443797578     -0.38324908398016
  H   -7.04902160071651      9.53571802025652      1.92811182652849
  H   -5.47621606731593      8.06589592693583      3.19620965375054
  H   -3.33016378299362      7.35159065366490      2.16935399567243
  C   -1.64635839805826      8.97321289879827     -0.92935016845402
  C   -1.39336387967809     10.20184631769420     -0.29641475345083
  C   -0.62356718951985     11.17597923527348     -0.93552223918906
  C   -0.08400605216285     10.93536917041969     -2.20333976015328
  C   -0.33036443431403      9.71044829851147     -2.83279147636526
  C   -1.11288977547367      8.73731725735438     -2.20821816253303
  H   -1.31448340720675      7.78779058276268     -2.70746878082445
  H   0.07843720996565      9.51288105292756     -3.82677887113680
  H   0.52292414908244     11.69696733425691     -2.69791580263923
  H   -0.43496834992154     12.12684244839176     -0.43105938976954
  H   -1.80544769583191     10.38792942372733      0.69707005709411
  C   -2.98505375112256      5.59203559978137     -0.24342311347335
  C   -2.57380136949719      4.26676707714647     -0.19182376192468
  H   -3.30662455743577      3.45967062709893     -0.20746533317686
  H   -4.04836508341467      5.82798670455176     -0.29966448527773
  H   0.08091018321313      7.10143634317984     -0.15880402590995
  H   0.79658835045687      4.72462712934627     -0.07836109954097
  C   4.01040695855917     -0.91718307369702      0.13604116952157
  C   4.98496372022796      0.10012085189101      0.12862897917112
  C   6.33868313863448     -0.20610721328112      0.17217387973112
  C   6.77066786370492     -1.54997870687239      0.23191579056533
  N   8.14295030460366     -1.86478063608434      0.27947316577227
  C   8.63597704779150     -3.06633221825547     -0.31311625380585
  C   9.52595609101210     -3.89061355516410      0.39584362242222
  C   10.02405246070510     -5.05547496544489     -0.19154095595005
  C   9.63246850852686     -5.42252814079488     -1.48318659145782
  C   8.74215869380505     -4.60576355773841     -2.18856178503090
  C   8.25228075008668     -3.43065627910492     -1.61533165754059
  H   7.56810168828101     -2.78851895277360     -2.17305181147779
  H   8.43459294707212     -4.87683211105204     -3.20151700501514
  H   10.01897627573513     -6.33756491355110     -1.93741979997995
  H   10.71536091868591     -5.68702836875759      0.37186214396546
  H   9.82515984561380     -3.61112089699983      1.40767598886642
  C   9.07021841598299     -0.98955259607702      0.92133637314445
  C   10.27614372356534     -0.64864768189396      0.28592445356302
  C   11.19274536372229      0.19084483875128      0.92237471632506
  C   10.91563512488245      0.71312669163275      2.18997818984000
  C   9.71291451035632      0.37917426137047      2.82185287541110
  C   8.79826256132312     -0.47295013979649      2.19997231561380
  H   7.86672504045664     -0.74222975563977      2.70120407855377
  H   9.48776749691861      0.77390391315528      3.81566348885976
  H   11.63186453304124      1.37453432812682      2.68248058321773
  H   12.12649561599280      0.44751710632547      0.41599362080423
  H   10.48998680110093     -1.04725125580725     -0.70746350182506
  C   5.79406045106693     -2.57091009458508      0.24277417526216
  C   4.44239932044078     -2.25691929592229      0.19240146323185
  H   3.69061859634051     -3.04633644180866      0.21016555835337
  H   6.10664995334850     -3.61421662794573      0.30008214476005
  H   7.07714181643142      0.59622593726000      0.15143300893395
  H   4.65451433453240      1.13763735792618      0.07336435508708
  C   -4.17805342620816     -2.71836222739177     -0.05105736536022
  C   -5.12657168616540     -3.73249691093205     -0.05525493196373
  H   -6.18682343864208     -3.48292994981443     -0.11070693451128
  H   -4.48569966461951     -1.67370362816656     -0.10327197919735
  H   -1.34373365213445     -4.59556308515673      0.10655606978048
  H   -3.02515202241438     -6.42346511325367      0.11163376285416
  C   -8.13642268767052     -6.31025723092789     -0.09066498116246
  C   -9.38963448407160     -6.13867559870718      0.50093343609831
  H   -10.28641932623414     -6.44314087139266     -0.04428898349294
  H   -8.05172421298497     -6.74628021567107     -1.08773642425436
  H   -6.18368495248201     -5.06945183713541      2.41823563933748
  H   -8.41733690861092     -4.73989618463200      3.45322891512199
  H   -10.48397797818248     -5.43003438545557      2.23069846296517
